@<TRIPOS>MOLECULE
*****
 20 18 0 0 0
SMALL
GASTEIGER

@<TRIPOS>ATOM
      1 C           0.7952   -0.3887   -0.8761 C.3     1  UNL1        0.0226
      2 C          -1.5119   -0.5570   -0.2726 C.3     1  UNL1        0.1318
      3 C           0.2953    1.9111   -0.4892 C.3     1  UNL1        0.0117
      4 C          -1.9384    0.8105   -0.1700 C.3     1  UNL1       -0.0163
      5 N           1.1554    0.8132   -0.1629 N.3     1  UNL1       -0.3000
      6 H          -2.4403    1.2646   -1.0159 H       1  UNL1        0.0295
      7 H          -0.0681    2.0507   -1.5043 H       1  UNL1        0.0439
      8 H          -1.7658   -1.1910   -1.1121 H       1  UNL1        0.0680
      9 H           0.1873    2.7498    0.1944 H       1  UNL1        0.0439
     10 H           0.4382   -0.2881   -1.9022 H       1  UNL1        0.0475
     11 H          -2.0602    1.2339    0.8204 H       1  UNL1        0.0295
     12 F          -1.4481   -1.2825    0.8630 F       1  UNL1       -0.2425
     13 C           1.3984   -1.7207   -0.5386 C.3     1  UNL1       -0.0480
     14 H           1.0027   -2.4870   -1.2129 H       1  UNL1        0.0245
     15 H           2.4852   -1.6920   -0.6607 H       1  UNL1        0.0245
     16 H           1.1594   -2.0217    0.4852 H       1  UNL1        0.0245
     17 C           1.4768    0.6754    1.2476 C.3     1  UNL1       -0.0124
     18 H           1.7665    1.6392    1.6839 H       1  UNL1        0.0391
     19 H           0.6339    0.2847    1.8294 H       1  UNL1        0.0391
     20 H           2.3350    0.0097    1.3941 H       1  UNL1        0.0391
@<TRIPOS>BOND
     1    10     1    1
     2     7     3    1
     3    14    13    1
     4     8     2    1
     5     6     4    1
     6     1    13    1
     7     1     5    1
     8    15    13    1
     9    13    16    1
    10     3     5    1
    11     3     9    1
    12     2     4    1
    13     2    12    1
    14     4    11    1
    15     5    17    1
    16    20    17    1
    17    17    18    1
    18    17    19    1
