@<TRIPOS>MOLECULE
*****
 16 14 0 0 0
SMALL
GASTEIGER

@<TRIPOS>ATOM
      1 O           1.4571    1.0277   -0.4703 O.2     1  UNL1       -0.3007
      2 C          -0.2447    1.5960    0.2715 C.3     2  UNL2       -0.0425
      3 C           0.5243   -1.1064    1.1767 C.3     1  UNL1       -0.0425
      4 C          -0.9704    0.4430    0.8253 C.3     2  UNL2        0.0237
      5 C           1.7089   -0.1170   -0.8424 C.2     1  UNL1        0.1240
      6 C           1.2547   -1.2973   -0.0698 C.3     1  UNL1        0.0237
      7 H           2.2458   -0.3433   -1.7784 H       1  UNL1        0.1029
      8 H           1.0475   -0.4791    1.9054 H       1  UNL1        0.0272
      9 H           1.2246   -2.2497   -0.5830 H       1  UNL1        0.0381
     10 H           0.1869    2.2996    0.9795 H       2  UNL2        0.0272
     11 H          -0.5702    1.9784   -0.6958 H       2  UNL2        0.0272
     12 H          -1.2070    0.5030    1.8865 H       2  UNL2        0.0381
     13 C          -2.0063   -0.2391   -0.0068 C.2     2  UNL2        0.1240
     14 O          -1.9637   -0.3005   -1.2288 O.2     2  UNL2       -0.3007
     15 H           0.0393   -1.9945    1.5795 H       1  UNL1        0.0272
     16 H          -2.8180   -0.7085    0.5735 H       2  UNL2        0.1029
@<TRIPOS>BOND
     1     7     5    1
     2    14    13    2
     3     5     1    2
     4     5     6    1
     5    11     2    1
     6     9     6    1
     7     6     3    1
     8    13    16    1
     9    13     4    1
    10     2     4    1
    11     2    10    1
    12     4    12    1
    13     3    15    1
    14     3     8    1
