@<TRIPOS>MOLECULE
*****
 24 25 0 0 0
SMALL
GASTEIGER

@<TRIPOS>ATOM
      1 C          -0.2575   -1.9445    0.4924 C.3     1  UNL1        0.0458
      2 C           0.3286   -0.0889   -0.7909 C.3     1  UNL1        0.0508
      3 C          -2.0352   -0.7041    0.0388 C.3     1  UNL1        0.0487
      4 C          -1.1150    0.3285   -0.9316 C.3     1  UNL1        0.0503
      5 C          -1.0356   -2.7139   -0.4510 C.2     1  UNL1       -0.0676
      6 C          -2.1494   -2.0106   -0.6995 C.2     1  UNL1       -0.0658
      7 H          -2.9264   -2.2819   -1.3967 H       1  UNL1        0.0588
      8 C          -3.2574    0.1226    0.3831 C.3     1  UNL1       -0.0237
      9 H          -3.9683    0.1197   -0.4524 H       1  UNL1        0.0290
     10 H          -3.7878   -0.2450    1.2681 H       1  UNL1        0.0290
     11 C          -2.7195    1.5396    0.6015 C.3     1  UNL1        0.0082
     12 H          -3.4906    2.2903    0.4124 H       1  UNL1        0.0342
     13 H          -2.3119    1.6634    1.6093 H       1  UNL1        0.0342
     14 C          -1.5872    1.6666   -0.3986 C.2     1  UNL1        0.1393
     15 O          -1.1174    2.7394   -0.7623 O.2     1  UNL1       -0.2970
     16 H          -0.7421   -3.6634   -0.8684 H       1  UNL1        0.0586
     17 H          -1.4561    0.2362   -1.9699 H       1  UNL1        0.0406
     18 H           0.7903   -0.6172   -1.6179 H       1  UNL1        0.0401
     19 C           1.2158    0.5654    0.1836 C.2     1  UNL1        0.2025
     20 O           0.8153    1.1752    1.1624 O.2     1  UNL1       -0.2844
     21 N          -1.1786   -1.0708    1.1797 N.3     1  UNL1       -0.2987
     22 H          -0.7390   -0.2942    1.6798 H       1  UNL1        0.1234
     23 H           0.6718   -2.2973    0.9293 H       1  UNL1        0.0523
     24 BR          3.0542    0.2998    0.0066 Br      1  UNL1       -0.0084
@<TRIPOS>BOND
     1    17     4    1
     2    18     2    1
     3     7     6    1
     4    16     5    1
     5     4     2    1
     6     4    14    1
     7     4     3    1
     8    15    14    2
     9     2    19    1
    10     6     5    2
    11     6     3    1
    12     5     1    1
    13    14    11    1
    14     9     8    1
    15    24    19    1
    16     3     8    1
    17     3    21    1
    18    19    20    2
    19     8    11    1
    20     8    10    1
    21    12    11    1
    22     1    23    1
    23     1    21    1
    24    11    13    1
    25    21    22    1
