@<TRIPOS>MOLECULE
*****
 11 11 0 0 0
SMALL
GASTEIGER

@<TRIPOS>ATOM
      1 C          -2.0498   -1.4458    0.0000 C.ar    1  UNL1        0.1605
      2 N          -0.6894   -1.4152    0.0000 N.ar    1  UNL1       -0.1342
      3 C          -0.8863    0.8911    0.0000 C.ar    1  UNL1        0.1703
      4 H          -2.5308   -2.4118    0.0000 H       1  UNL1        0.1085
      5 N          -2.8451   -0.3417    0.0000 N.ar    1  UNL1       -0.1342
      6 N          -2.2461    0.8641    0.0000 N.ar    1  UNL1       -0.1313
      7 N          -0.0882   -0.2105    0.0000 N.ar    1  UNL1       -0.1313
      8 C          -0.2193    2.2490    0.0000 C.3     1  UNL1       -0.0010
      9 H           0.8679    2.1660    0.0000 H       1  UNL1        0.0309
     10 H          -0.5220    2.8120   -0.8824 H       1  UNL1        0.0309
     11 H          -0.5220    2.8120    0.8824 H       1  UNL1        0.0309
@<TRIPOS>BOND
     1    10     8    1
     2     1     2   ar
     3     1     4    1
     4     1     5   ar
     5     2     7   ar
     6     3     6   ar
     7     3     7   ar
     8     3     8    1
     9     5     6   ar
    10     8     9    1
    11     8    11    1
