@<TRIPOS>MOLECULE
*****
 13 12 0 0 0
SMALL
GASTEIGER

@<TRIPOS>ATOM
      1 C          -0.8532    1.1354   -0.7795 C.2     1  UNL1       -0.0871
      2 H          -0.4817   -0.4988    0.4683 H       1  UNL1        0.0614
      3 C           2.2060   -0.6264    0.2559 C.2     1  UNL1       -0.0987
      4 H           1.8423    1.0057   -0.9911 H       1  UNL1        0.0612
      5 C          -0.0416    0.2511   -0.1755 C.2     1  UNL1       -0.0665
      6 C           1.3967    0.2578   -0.3484 C.2     1  UNL1       -0.0692
      7 H           3.2756   -0.5943    0.1059 H       1  UNL1        0.0535
      8 H          -0.4330    1.8935   -1.4273 H       1  UNL1        0.0569
      9 H           1.8187   -1.3958    0.9088 H       1  UNL1        0.0535
     10 C          -2.3599    1.1613   -0.6244 C.3     1  UNL1       -0.0465
     11 H          -2.6795    2.1178   -0.2101 H       1  UNL1        0.0272
     12 H          -2.8406    1.0251   -1.5934 H       1  UNL1        0.0272
     13 H          -2.7106    0.3711    0.0408 H       1  UNL1        0.0272
@<TRIPOS>BOND
     1    12    10    1
     2     8     1    1
     3     4     6    1
     4     1    10    1
     5     1     5    2
     6    10    11    1
     7    10    13    1
     8     6     5    1
     9     6     3    2
    10     5     2    1
    11     7     3    1
    12     3     9    1
