@<TRIPOS>MOLECULE
*****
 14 14 0 0 0
SMALL
GASTEIGER

@<TRIPOS>ATOM
      1 C          -0.0511   -0.0927   -0.7422 C.2     1  UNL1       -0.0628
      2 C           1.3894   -0.1027   -0.6282 C.2     1  UNL1       -0.0654
      3 C           1.8126    1.1094   -0.2500 C.2     1  UNL1       -0.0800
      4 C           0.6239    2.0214   -0.0877 C.3     1  UNL1       -0.0132
      5 C          -0.5376    1.1204   -0.4375 C.2     1  UNL1       -0.0689
      6 H          -0.6519   -0.9428   -1.0321 H       1  UNL1        0.0617
      7 H           2.0242   -0.9567   -0.8190 H       1  UNL1        0.0615
      8 H           2.8322    1.4248   -0.0779 H       1  UNL1        0.0575
      9 H           0.5320    2.3906    0.9346 H       1  UNL1        0.0352
     10 H           0.6700    2.8734   -0.7671 H       1  UNL1        0.0352
     11 C          -1.9652    1.6193   -0.4117 C.3     1  UNL1       -0.0432
     12 H          -2.0926    2.4441   -1.1129 H       1  UNL1        0.0275
     13 H          -2.6570    0.8250   -0.6932 H       1  UNL1        0.0275
     14 H          -2.2306    1.9613    0.5887 H       1  UNL1        0.0275
@<TRIPOS>BOND
     1    12    11    1
     2     6     1    1
     3     7     2    1
     4    10     4    1
     5     1     2    1
     6     1     5    2
     7    13    11    1
     8     2     3    2
     9     5    11    1
    10     5     4    1
    11    11    14    1
    12     3     4    1
    13     3     8    1
    14     4     9    1
