@<TRIPOS>MOLECULE
*****
 12 12 0 0 0
SMALL
GASTEIGER

@<TRIPOS>ATOM
      1 C          -0.4703    1.1413   -0.4635 C.ar    1  UNL1        0.1018
      2 H          -0.6958   -1.0392   -0.6805 H       1  UNL1        0.0652
      3 C           1.7158    1.1567   -0.3990 C.ar    1  UNL1        0.0921
      4 H           1.9996   -1.0246   -0.6013 H       1  UNL1        0.0649
      5 C          -0.0546   -0.1758   -0.5787 C.ar    1  UNL1       -0.0210
      6 C           1.3415   -0.1692   -0.5377 C.ar    1  UNL1       -0.0237
      7 H           2.6683    1.6616   -0.3228 H       1  UNL1        0.1029
      8 O           0.6152    1.9495   -0.3542 O.2     1  UNL1       -0.4681
      9 C          -1.8148    1.8185   -0.4369 C.3     1  UNL1       -0.0064
     10 H          -2.6313    1.1032   -0.5295 H       1  UNL1        0.0308
     11 H          -1.9647    2.3650    0.4938 H       1  UNL1        0.0308
     12 H          -1.9143    2.5335   -1.2531 H       1  UNL1        0.0308
@<TRIPOS>BOND
     1    12     9    1
     2     2     5    1
     3     4     6    1
     4     5     6   ar
     5     5     1   ar
     6     6     3   ar
     7    10     9    1
     8     1     9    1
     9     1     8   ar
    10     9    11    1
    11     3     8   ar
    12     3     7    1
