@<TRIPOS>MOLECULE
*****
 13 13 0 0 0
SMALL
GASTEIGER

@<TRIPOS>ATOM
      1 C           1.7492    1.0873   -0.2307 C.ar    1  UNL1        0.0019
      2 H          -0.6670   -1.0421   -0.8701 H       1  UNL1        0.0635
      3 C          -0.4967    1.0932   -0.3710 C.ar    1  UNL1        0.0128
      4 H           1.9993   -1.0548   -0.7049 H       1  UNL1        0.0632
      5 C           1.3538   -0.2001   -0.5501 C.ar    1  UNL1       -0.0442
      6 C          -0.0424   -0.1915   -0.6362 C.ar    1  UNL1       -0.0415
      7 H           2.7273    1.5190   -0.0703 H       1  UNL1        0.0807
      8 N           0.6177    1.8564   -0.1261 N.ar    1  UNL1       -0.3646
      9 H           0.5971    2.8409    0.0978 H       1  UNL1        0.1650
     10 C          -1.8853    1.6814   -0.3240 C.3     1  UNL1       -0.0245
     11 H          -2.6467    0.9324   -0.5432 H       1  UNL1        0.0292
     12 H          -2.1181    2.0929    0.6584 H       1  UNL1        0.0292
     13 H          -2.0103    2.4839   -1.0512 H       1  UNL1        0.0292
@<TRIPOS>BOND
     1    13    10    1
     2     2     6    1
     3     4     5    1
     4     6     5   ar
     5     6     3   ar
     6     5     1   ar
     7    11    10    1
     8     3    10    1
     9     3     8   ar
    10    10    12    1
    11     1     8   ar
    12     1     7    1
    13     8     9    1
