@<TRIPOS>MOLECULE
*****
 12 11 0 0 0
SMALL
GASTEIGER

@<TRIPOS>ATOM
      1 N          -1.1218    1.4332   -0.7781 N.2     1  UNL1       -0.2949
      2 H          -1.4972    0.7051    1.1484 H       1  UNL1        0.0825
      3 C          -3.0321   -1.3338    0.4633 C.2     1  UNL1       -0.0973
      4 C          -1.6319    0.6377    0.0707 C.2     1  UNL1        0.0212
      5 C          -2.4522   -0.4445   -0.3635 C.2     1  UNL1       -0.0512
      6 H          -2.9122   -1.2864    1.5375 H       1  UNL1        0.0535
      7 H          -3.6442   -2.1338    0.0713 H       1  UNL1        0.0535
      8 H          -2.5864   -0.5118   -1.4349 H       1  UNL1        0.0627
      9 C          -0.2976    2.5126   -0.2695 C.3     1  UNL1        0.0283
     10 H          -0.7149    3.4718   -0.5793 H       1  UNL1        0.0472
     11 H           0.7055    2.4404   -0.6923 H       1  UNL1        0.0472
     12 H          -0.1878    2.5445    0.8195 H       1  UNL1        0.0472
@<TRIPOS>BOND
     1     8     5    1
     2     1     9    1
     3     1     4    2
     4    11     9    1
     5    10     9    1
     6     5     4    1
     7     5     3    2
     8     9    12    1
     9     4     2    1
    10     7     3    1
    11     3     6    1
