@<TRIPOS>MOLECULE
*****
 12 11 0 0 0
SMALL
GASTEIGER

@<TRIPOS>ATOM
      1 C          -0.8651    1.0515    0.2944 C.2     1  UNL1        0.0020
      2 H          -3.8330   -0.5667   -1.5984 H       1  UNL1        0.0550
      3 C          -3.4191   -1.0931   -0.7504 C.2     1  UNL1       -0.0805
      4 H          -3.8596   -2.0409   -0.4819 H       1  UNL1        0.0550
      5 N          -1.8357    0.6046   -0.3885 N.2     1  UNL1       -0.2684
      6 C          -2.3922   -0.5828   -0.0569 C.2     1  UNL1        0.0201
      7 H          -1.9970   -1.1345    0.7909 H       1  UNL1        0.0823
      8 H          -0.4278    0.5445    1.1522 H       1  UNL1        0.0779
      9 C          -0.2168    2.3702   -0.0417 C.3     1  UNL1       -0.0293
     10 H           0.5964    2.5931    0.6476 H       1  UNL1        0.0287
     11 H           0.1899    2.3525   -1.0526 H       1  UNL1        0.0287
     12 H          -0.9424    3.1813    0.0152 H       1  UNL1        0.0287
@<TRIPOS>BOND
     1     2     3    1
     2    11     9    1
     3     3     4    1
     4     3     6    2
     5     5     6    1
     6     5     1    2
     7     6     7    1
     8     9    12    1
     9     9     1    1
    10     9    10    1
    11     1     8    1
