@<TRIPOS>MOLECULE
*****
 11 10 0 0 0
SMALL
GASTEIGER

@<TRIPOS>ATOM
      1 O          -2.6813    1.9206   -0.4578 O.2     1  UNL1       -0.2963
      2 H          -1.1654    0.9432    0.4542 H       1  UNL1        0.1075
      3 C          -2.1310   -1.5276    0.2080 C.2     1  UNL1       -0.0841
      4 C          -2.7281   -0.4041   -0.2312 C.2     1  UNL1       -0.0266
      5 C          -2.1296    0.9008   -0.0541 C.2     1  UNL1        0.1428
      6 H          -1.1731   -1.4826    0.7126 H       1  UNL1        0.0570
      7 H          -3.6824   -0.4184   -0.7373 H       1  UNL1        0.0646
      8 C          -2.7157   -2.9156    0.0471 C.3     1  UNL1       -0.0464
      9 H          -2.0403   -3.5455   -0.5325 H       1  UNL1        0.0272
     10 H          -2.8678   -3.3772    1.0232 H       1  UNL1        0.0272
     11 H          -3.6777   -2.8911   -0.4673 H       1  UNL1        0.0272
@<TRIPOS>BOND
     1     7     4    1
     2     9     8    1
     3    11     8    1
     4     1     5    2
     5     4     5    1
     6     4     3    2
     7     5     2    1
     8     8     3    1
     9     8    10    1
    10     3     6    1
