@<TRIPOS>MOLECULE
*****
 11 10 0 0 0
SMALL
GASTEIGER

@<TRIPOS>ATOM
      1 O          -2.7851    1.9108   -0.3807 O.2     1  UNL1       -0.2961
      2 H          -1.0706    0.8784   -0.1724 H       1  UNL1        0.1078
      3 C          -2.0482   -1.5268    0.2117 C.2     1  UNL1       -0.0927
      4 C          -2.8061   -0.4316    0.0123 C.2     1  UNL1       -0.0183
      5 C          -2.1611    0.8672   -0.1927 C.2     1  UNL1        0.1454
      6 H          -0.9669   -1.4927    0.2279 H       1  UNL1        0.0538
      7 H          -2.5051   -2.4942    0.3649 H       1  UNL1        0.0538
      8 C          -4.3301   -0.4599   -0.0140 C.3     1  UNL1       -0.0372
      9 H          -4.7404    0.1864    0.7640 H       1  UNL1        0.0278
     10 H          -4.7209   -1.4652    0.1470 H       1  UNL1        0.0278
     11 H          -4.7050   -0.1058   -0.9759 H       1  UNL1        0.0278
@<TRIPOS>BOND
     1    11     8    1
     2     1     5    2
     3     5     2    1
     4     5     4    1
     5     8     4    1
     6     8    10    1
     7     8     9    1
     8     4     3    2
     9     3     6    1
    10     3     7    1
