@<TRIPOS>MOLECULE
*****
 9 8 0 0 0
SMALL
GASTEIGER

@<TRIPOS>ATOM
      1 H          -0.3445    0.1992    0.1169 H       1  UNL1        0.0532
      2 C          -0.2350    2.3102    0.1169 C.2     1  UNL1       -0.0942
      3 H          -1.9636    1.0899    0.1169 H       1  UNL1        0.0532
      4 C          -0.8837    1.1357    0.1169 C.2     1  UNL1       -0.1029
      5 H           0.8472    2.3215    0.1169 H       1  UNL1        0.0564
      6 C          -0.9263    3.6559    0.1169 C.3     1  UNL1       -0.0471
      7 H          -0.1915    4.4615    0.1169 H       1  UNL1        0.0272
      8 H          -1.5517    3.7674   -0.7696 H       1  UNL1        0.0272
      9 H          -1.5517    3.7674    1.0034 H       1  UNL1        0.0272
@<TRIPOS>BOND
     1     8     6    1
     2     1     4    1
     3     2     4    2
     4     2     5    1
     5     2     6    1
     6     3     4    1
     7     6     7    1
     8     6     9    1
