@<TRIPOS>MOLECULE
*****
 7 6 0 0 0
SMALL
GASTEIGER

@<TRIPOS>ATOM
      1 H          -2.7805   -0.2093   -0.6830 H       1  UNL1        0.1228
      2 C          -0.4924   -0.2013   -0.6877 C.1     1  UNL1       -0.1089
      3 C          -1.7130   -0.2069   -0.6845 C.1     1  UNL1       -0.1194
      4 C           0.9766   -0.2058   -0.6851 C.3     1  UNL1       -0.0028
      5 H           1.3433   -0.2069    0.3413 H       1  UNL1        0.0361
      6 H           1.3433   -1.0952   -1.1973 H       1  UNL1        0.0361
      7 H           1.3487    0.6813   -1.1973 H       1  UNL1        0.0361
@<TRIPOS>BOND
     1     6     4    1
     2     7     4    1
     3     2     4    1
     4     2     3    3
     5     4     5    1
     6     3     1    1
