@<TRIPOS>MOLECULE
*****
 11 10 0 0 0
SMALL
GASTEIGER

@<TRIPOS>ATOM
      1 H          -0.5561    0.2468    0.2229 H       1  UNL1        0.0536
      2 C          -0.2894    2.3377    0.3529 C.2     1  UNL1       -0.0266
      3 H          -1.7245    1.2431   -0.7929 H       1  UNL1        0.0536
      4 C          -0.8938    1.2214   -0.1008 C.2     1  UNL1       -0.0954
      5 H           0.5386    2.2748    1.0445 H       1  UNL1        0.0646
      6 C          -0.6700    3.6907   -0.0232 C.2     1  UNL1        0.1525
      7 O          -0.0760    4.6632    0.4283 O.2     1  UNL1       -0.2930
      8 C          -1.8212    3.9276   -0.9912 C.3     1  UNL1       -0.0020
      9 H          -1.6086    3.4584   -1.9502 H       1  UNL1        0.0309
     10 H          -2.7445    3.5184   -0.5848 H       1  UNL1        0.0309
     11 H          -1.9567    4.9970   -1.1509 H       1  UNL1        0.0309
@<TRIPOS>BOND
     1     9     8    1
     2    11     8    1
     3     8    10    1
     4     8     6    1
     5     3     4    1
     6     4     1    1
     7     4     2    2
     8     6     2    1
     9     6     7    2
    10     2     5    1
