@<TRIPOS>MOLECULE
*****
 9 9 0 0 0
SMALL
GASTEIGER

@<TRIPOS>ATOM
      1 O           0.6893    2.6530   -0.2092 O.3     1  UNL1       -0.3869
      2 C           0.0716    4.7060    0.3957 C.2     1  UNL1        0.0297
      3 H           0.1883    5.7577    0.6100 H       1  UNL1        0.0691
      4 C          -1.0143    3.9245    0.4567 C.2     1  UNL1        0.0297
      5 H          -2.0304    4.1609    0.7347 H       1  UNL1        0.0691
      6 C           1.1674    3.8811   -0.0342 C.2     1  UNL1        0.3397
      7 C          -0.6105    2.6016    0.0656 C.2     1  UNL1        0.3397
      8 O           2.3315    4.2271   -0.2119 O.2     1  UNL1       -0.2451
      9 O          -1.3175    1.6010   -0.0069 O.2     1  UNL1       -0.2451
@<TRIPOS>BOND
     1     8     6    2
     2     1     6    1
     3     1     7    1
     4     6     2    1
     5     9     7    2
     6     7     4    1
     7     2     4    2
     8     2     3    1
     9     4     5    1
