@<TRIPOS>MOLECULE
*****
 7 7 0 0 0
SMALL
GASTEIGER

@<TRIPOS>ATOM
      1 H          -1.8985   -1.2345   -0.3252 H       1  UNL1        0.0602
      2 C          -0.9965   -0.6419   -0.3538 C.2     1  UNL1       -0.0459
      3 C          -0.3427    0.6449    0.0677 C.3     1  UNL1        0.1548
      4 C           0.2413   -0.4864   -0.7323 C.2     1  UNL1       -0.0459
      5 H           1.1157   -0.8557   -1.2469 H       1  UNL1        0.0602
      6 CL          0.1501    0.8511    1.7641 Cl      1  UNL1       -0.0917
      7 CL         -0.7861    2.1542   -0.7619 Cl      1  UNL1       -0.0917
@<TRIPOS>BOND
     1     5     4    1
     2     7     3    1
     3     4     2    2
     4     4     3    1
     5     2     1    1
     6     2     3    1
     7     3     6    1
