@<TRIPOS>MOLECULE
Structure3
70   78    1
SMALL
USER_CHARGES


@<TRIPOS>ATOM
      1 C1         -2.2847   -2.4195   -2.2560 C.ar      1 ****       -0.1132 
      2 C2         -1.4184   -3.5056   -2.2177 C.ar      1 ****        0.0109 
      3 C3         -0.1841   -3.3741   -1.5494 C.ar      1 ****       -0.0635 
      4 C4          0.1252   -2.1764   -0.8617 C.ar      1 ****        0.1457 
      5 H5         -3.2387   -2.5248   -2.7519 H         1 ****        0.1448 
      6 O6          1.2940   -2.1513   -0.1483 O.3       1 ****       -0.3204 
      7 C7          1.2044   -5.1220   -0.3419 C.ar      1 ****        0.1457 
      8 C8          0.8080   -4.5177   -1.5597 C.ar      1 ****       -0.0635 
      9 C9          1.3343   -4.9783   -2.7832 C.ar      1 ****        0.0109 
     10 C10         2.1695   -6.0883   -2.7825 C.ar      1 ****       -0.1132 
     11 O11         0.6885   -4.5819    0.8061 O.3       1 ****       -0.3204 
     12 H12         2.5771   -6.4405   -3.7189 H         1 ****        0.1448 
     13 C13        -0.7441   -1.0247   -0.9402 C.ar      1 ****       -0.0147 
     14 C14        -1.9776   -1.1911   -1.6425 C.ar      1 ****       -0.0145 
     15 C15        -2.9085   -0.1366   -1.7134 C.ar      1 ****       -0.1266 
     16 C16        -2.6521    1.0805   -1.1105 C.ar      1 ****       -0.1012 
     17 H17        -3.8413   -0.2849   -2.2384 H         1 ****        0.1373 
     18 H18        -3.3838    1.8734   -1.1696 H         1 ****        0.1355 
     19 C19         2.5293   -6.7575   -1.5987 C.ar      1 ****       -0.0145 
     20 C20         2.0574   -6.2905   -0.3322 C.ar      1 ****       -0.0147 
     21 C21         3.7560   -8.5676   -0.5432 C.ar      1 ****       -0.1012 
     22 C22         3.3707   -7.8837   -1.6802 C.ar      1 ****       -0.1266 
     23 H23         4.4028   -9.4289   -0.6280 H         1 ****        0.1355 
     24 H24         3.7216   -8.2174   -2.6461 H         1 ****        0.1373 
     25 C25        -1.4410    1.3063   -0.4335 C.ar      1 ****       -0.0352 
     26 C26        -0.4611    0.2615   -0.3533 C.ar      1 ****       -0.0153 
     27 C27         0.7677    0.5937    0.3086 C.ar      1 ****       -0.1101 
     28 C28         0.9801    1.8473    0.8750 C.ar      1 ****       -0.1264 
     29 C29         0.0038    2.8277    0.8083 C.ar      1 ****       -0.1196 
     30 C30        -1.1953    2.5712    0.1585 C.ar      1 ****       -0.1196 
     31 H31         1.5904   -0.0908    0.3802 H         1 ****        0.1516 
     32 H32         1.9192    2.0616    1.3655 H         1 ****        0.1359 
     33 H33         0.1834    3.7968    1.2518 H         1 ****        0.1323 
     34 H34        -1.9476    3.3443    0.0956 H         1 ****        0.1336 
     35 C35         2.4614   -7.0097    0.8511 C.ar      1 ****       -0.0153 
     36 C36         3.3175   -8.1549    0.7264 C.ar      1 ****       -0.0352 
     37 C37         3.7286   -8.8772    1.8754 C.ar      1 ****       -0.1196 
     38 C38         3.3109   -8.4912    3.1410 C.ar      1 ****       -0.1196 
     39 C39         2.4830   -7.3911    3.2917 C.ar      1 ****       -0.1264 
     40 C40         2.0611   -6.6621    2.1836 C.ar      1 ****       -0.1101 
     41 H41         4.3754   -9.7352    1.7627 H         1 ****        0.1336 
     42 H42         3.6320   -9.0459    4.0110 H         1 ****        0.1323 
     43 H43         2.1644   -7.0939    4.2806 H         1 ****        0.1359 
     44 H44         1.4245   -5.8274    2.3982 H         1 ****        0.1516 
     45 C45        -2.8333   -7.1615   -3.9649 C.ar      1 ****       -0.1223 
     46 C46        -2.8457   -5.9872   -4.7131 C.ar      1 ****       -0.1328 
     47 C47        -2.3832   -4.8033   -4.1437 C.ar      1 ****       -0.1091 
     48 C48        -1.8989   -4.7835   -2.8295 C.ar      1 ****       -0.0449 
     49 C49        -1.9063   -5.9718   -2.0884 C.ar      1 ****       -0.1091 
     50 C50        -2.3657   -7.1586   -2.6532 C.ar      1 ****       -0.1328 
     51 H51        -3.1902   -8.0821   -4.4039 H         1 ****        0.1304 
     52 H52        -3.2065   -5.9935   -5.7312 H         1 ****        0.1328 
     53 H53        -2.3743   -3.8977   -4.7333 H         1 ****        0.1382 
     54 H54        -1.5498   -5.9725   -1.0677 H         1 ****        0.1382 
     55 H55        -2.3590   -8.0701   -2.0731 H         1 ****        0.1328 
     56 C56         0.7064   -3.0343   -6.5578 C.ar      1 ****       -0.1223 
     57 C57         1.1420   -2.2925   -5.4628 C.ar      1 ****       -0.1328 
     58 C58         1.3441   -2.9250   -4.2390 C.ar      1 ****       -0.1091 
     59 C59         1.1032   -4.2970   -4.0950 C.ar      1 ****       -0.0449 
     60 C60         0.6756   -5.0289   -5.2101 C.ar      1 ****       -0.1091 
     61 C61         0.4734   -4.4018   -6.4372 C.ar      1 ****       -0.1328 
     62 H62         0.5497   -2.5445   -7.5081 H         1 ****        0.1304 
     63 H63         1.3250   -1.2320   -5.5589 H         1 ****        0.1328 
     64 H64         1.6886   -2.3469   -3.3929 H         1 ****        0.1382 
     65 H65         0.4741   -6.0863   -5.1139 H         1 ****        0.1382 
     66 H66         0.1330   -4.9739   -7.2879 H         1 ****        0.1328 
     67 P67         1.2910   -3.1172    1.1559 P.3       1 ****        0.8948 
     68 O68         0.1271   -2.4781    2.0611 O.3       1 ****       -0.5324 
     69 O69         2.5756   -3.1412    1.8974 O.2       1 ****       -0.5380 
     70 H70         0.5181   -2.0825    2.8573 H         1 ****        0.4377 
@<TRIPOS>BOND
     1    1    2 ar   
     2    1    5 1    
     3    1   14 ar   
     4    2    3 ar   
     5    2   48 1    
     6    3    4 ar   
     7    3    8 1    
     8    4    6 1    
     9    4   13 ar   
    10    6   67 1    
    11    7    8 ar   
    12    7   11 1    
    13    7   20 ar   
    14    8    9 ar   
    15    9   10 ar   
    16    9   59 1    
    17   10   12 1    
    18   10   19 ar   
    19   11   67 1    
    20   13   14 ar   
    21   13   26 ar   
    22   14   15 ar   
    23   15   16 ar   
    24   15   17 1    
    25   16   18 1    
    26   16   25 ar   
    27   19   20 ar   
    28   19   22 ar   
    29   20   35 ar   
    30   21   22 ar   
    31   21   23 1    
    32   21   36 ar   
    33   22   24 1    
    34   25   26 ar   
    35   25   30 ar   
    36   26   27 ar   
    37   27   28 ar   
    38   27   31 1    
    39   28   29 ar   
    40   28   32 1    
    41   29   30 ar   
    42   29   33 1    
    43   30   34 1    
    44   35   36 ar   
    45   35   40 ar   
    46   36   37 ar   
    47   37   38 ar   
    48   37   41 1    
    49   38   39 ar   
    50   38   42 1    
    51   39   40 ar   
    52   39   43 1    
    53   40   44 1    
    54   45   46 ar   
    55   45   50 ar   
    56   45   51 1    
    57   46   47 ar   
    58   46   52 1    
    59   47   48 ar   
    60   47   53 1    
    61   48   49 ar   
    62   49   50 ar   
    63   49   54 1    
    64   50   55 1    
    65   56   57 ar   
    66   56   61 ar   
    67   56   62 1    
    68   57   58 ar   
    69   57   63 1    
    70   58   59 ar   
    71   58   64 1    
    72   59   60 ar   
    73   60   61 ar   
    74   60   65 1    
    75   61   66 1    
    76   67   68 1    
    77   67   69 2    
    78   68   70 1    
@<TRIPOS>SUBSTRUCTURE
     1 ****        1 GROUP             0       ****    0 ROOT    
