@<TRIPOS>MOLECULE
Molecule Name
44   47    1
SMALL
USER_CHARGES


@<TRIPOS>ATOM
      1 O1          1.5147    3.3805   -3.2502 O.3       1 ****       -0.6203 
      2 C2          1.1310    2.2669   -2.4658 C.3       1 ****        0.2273 
      3 C3         -0.3954    2.2935   -2.1261 C.3       1 ****        0.0441 
      4 H4          1.7050    2.3738   -1.5444 H         1 ****        0.0730 
      5 C5          1.5239    0.9397   -3.1261 C.ar      1 ****       -0.1809 
      6 H6         -0.5975    1.3819   -1.5569 H         1 ****        0.1262 
      7 C7         -1.3898    2.3481   -3.3293 C.3       1 ****       -0.1406 
      8 N8         -0.7575    3.4436   -1.1254 N.4       1 ****       -0.4391 
      9 C9          1.8011   -0.2223   -2.3272 C.ar      1 ****        0.0673 
     10 C10         1.5957    0.8227   -4.5213 C.ar      1 ****       -0.1427 
     11 C11        -2.5215    3.3900   -3.1132 C.3       1 ****       -0.0852 
     12 H12        -1.7942    1.3549   -3.5306 H         1 ****        0.1100 
     13 H13        -0.8455    2.5950   -4.2428 H         1 ****        0.1100 
     14 C14        -0.8181    4.8367   -1.8238 C.3       1 ****        0.0407 
     15 C15        -2.1823    3.1551   -0.5595 C.3       1 ****        0.0410 
     16 C16         1.7429   -0.2544   -0.9023 C.ar      1 ****       -0.2235 
     17 C17         2.1543   -1.4301   -3.0137 C.ar      1 ****        0.0839 
     18 C18         1.9477   -0.3953   -5.0916 C.ar      1 ****       -0.0321 
     19 H19         1.3810    1.6643   -5.1661 H         1 ****        0.1510 
     20 C20        -1.8426    4.7798   -2.9902 C.3       1 ****       -0.1559 
     21 H21        -3.2407    3.3742   -3.9379 H         1 ****        0.1372 
     22 C22        -3.2092    3.0923   -1.7428 C.3       1 ****       -0.1031 
     23 H23         0.1830    5.1084   -2.1613 H         1 ****        0.1196 
     24 H24        -1.1070    5.5699   -1.0664 H         1 ****        0.1196 
     25 H25        -2.1280    2.2254    0.0139 H         1 ****        0.1201 
     26 H26        -2.4170    3.9570    0.1462 H         1 ****        0.1201 
     27 C27         2.0328   -1.4263   -0.2056 C.ar      1 ****       -0.0898 
     28 H28         1.4804    0.6236   -0.3360 H         1 ****        0.1188 
     29 C29         2.4414   -2.6023   -2.2750 C.ar      1 ****       -0.1383 
     30 N30         2.2254   -1.5039   -4.3703 N.ar      1 ****       -0.1538 
     31 H31         2.0152   -0.5063   -6.1655 H         1 ****        0.1783 
     32 H32        -1.3330    5.0276   -3.9245 H         1 ****        0.1095 
     33 H33        -2.5950    5.5613   -2.8634 H         1 ****        0.1095 
     34 H34        -3.9526    3.8754   -1.5688 H         1 ****        0.1066 
     35 C35        -4.0094    1.7714   -1.7519 C.3       1 ****       -0.1779 
     36 C36         2.3795   -2.5885   -0.8845 C.ar      1 ****       -0.1172 
     37 H37         2.7111   -3.5065   -2.8036 H         1 ****        0.1685 
     38 H38        -4.5815    1.6469   -0.8308 H         1 ****        0.0844 
     39 H39        -4.7276    1.7458   -2.5735 H         1 ****        0.0844 
     40 H40        -3.3686    0.8947   -1.8519 H         1 ****        0.0844 
     41 H41         2.6045   -3.4879   -0.3266 H         1 ****        0.1549 
     42 H42         2.4420    3.2620   -3.4860 H         1 ****        0.4438 
     43 H43        -0.0768    3.4706   -0.3747 H         1 ****        0.3202 
     44 H44         1.9941   -1.4388    0.8755 H         1 ****        0.1462 
@<TRIPOS>BOND
     1    1    2 1    
     2    1   42 1    
     3    2    3 1    
     4    2    4 1    
     5    2    5 1    
     6    3    6 1    
     7    3    7 1    
     8    3    8 1    
     9    5    9 ar   
    10    5   10 ar   
    11    7   11 1    
    12    7   12 1    
    13    7   13 1    
    14    8   14 1    
    15    8   15 1    
    16    8   43 1    
    17    9   16 ar   
    18    9   17 ar   
    19   10   18 ar   
    20   10   19 1    
    21   11   20 1    
    22   11   21 1    
    23   11   22 1    
    24   14   20 1    
    25   14   23 1    
    26   14   24 1    
    27   15   22 1    
    28   15   25 1    
    29   15   26 1    
    30   16   27 ar   
    31   16   28 1    
    32   17   29 ar   
    33   17   30 ar   
    34   18   30 ar   
    35   18   31 1    
    36   20   32 1    
    37   20   33 1    
    38   22   34 1    
    39   22   35 1    
    40   27   36 ar   
    41   27   44 1    
    42   29   36 ar   
    43   29   37 1    
    44   35   38 1    
    45   35   39 1    
    46   35   40 1    
    47   36   41 1    
@<TRIPOS>SUBSTRUCTURE
     1 ****        1 GROUP             0       ****    0 ROOT    
