@<TRIPOS>MOLECULE
Structure1
85   93    1
SMALL
USER_CHARGES


@<TRIPOS>ATOM
      1 C1          0.6592    6.9414   -2.1306 C.ar      1 ****       -0.0163 
      2 C2         -0.0184    5.7733   -1.7049 C.ar      1 ****       -0.0683 
      3 C3         -1.3514    5.8445   -1.2614 C.ar      1 ****       -0.0244 
      4 C4         -2.0155    7.0678   -1.2547 C.ar      1 ****       -0.1030 
      5 C5          0.7821    4.4618   -1.6714 C.3       1 ****        0.0300 
      6 H6         -3.0403    7.1154   -0.9156 H         1 ****        0.1392 
      7 C7         -1.3631    8.2632   -1.6090 C.ar      1 ****       -0.0372 
      8 C8          0.0002    8.2163   -2.0286 C.ar      1 ****       -0.0232 
      9 C9          0.6456    9.4576   -2.3130 C.ar      1 ****       -0.1113 
     10 C10        -0.0404   10.6656   -2.2250 C.ar      1 ****       -0.1273 
     11 C11        -1.3753   10.6903   -1.8450 C.ar      1 ****       -0.1237 
     12 C12        -2.0381    9.5079   -1.5341 C.ar      1 ****       -0.1192 
     13 H13         1.6856    9.4681   -2.6039 H         1 ****        0.1410 
     14 H14         0.4698   11.5906   -2.4529 H         1 ****        0.1331 
     15 H15        -1.8968   11.6346   -1.7798 H         1 ****        0.1314 
     16 H16        -3.0718    9.5344   -1.2208 H         1 ****        0.1337 
     17 C17         4.7505    6.7357   -3.5450 C.ar      1 ****       -0.1030 
     18 C18         2.0832    6.8614   -2.6398 C.ar      1 ****       -0.0163 
     19 C19         3.1001    6.3120   -1.8267 C.ar      1 ****       -0.0683 
     20 C20         4.4261    6.2468   -2.2835 C.ar      1 ****       -0.0244 
     21 H21         5.7738    6.6879   -3.8887 H         1 ****        0.1392 
     22 C22         2.6585    5.6447   -0.5214 C.3       1 ****        0.0300 
     23 C23         3.7648    7.2462   -4.4112 C.ar      1 ****       -0.0372 
     24 C24         2.4059    7.2913   -3.9745 C.ar      1 ****       -0.0232 
     25 C25         1.4278    7.7481   -4.9082 C.ar      1 ****       -0.1113 
     26 C26         1.7898    8.1759   -6.1823 C.ar      1 ****       -0.1273 
     27 C27         3.1198    8.1563   -6.5797 C.ar      1 ****       -0.1237 
     28 C28         4.1043    7.6943   -5.7129 C.ar      1 ****       -0.1192 
     29 H29         0.3849    7.7655   -4.6281 H         1 ****        0.1410 
     30 H30         1.0301    8.5242   -6.8676 H         1 ****        0.1331 
     31 H31         3.3876    8.4908   -7.5718 H         1 ****        0.1314 
     32 H32         5.1355    7.6639   -6.0342 H         1 ****        0.1337 
     33 H33         3.4905    5.5347    0.1702 H         1 ****        0.0859 
     34 H34         2.0102    6.3461    0.0067 H         1 ****        0.0859 
     35 N35         1.8997    4.3960   -0.7094 N.pl3     1 ****       -0.3602 
     36 H36         1.1874    4.3057   -2.6734 H         1 ****        0.0859 
     37 H37         0.1016    3.6231   -1.5333 H         1 ****        0.0859 
     38 N38         1.9519    2.0169   -0.6449 N.2       1 ****       -0.8706 
     39 C39         2.4682    3.1208   -0.3904 C.2       1 ****        0.5748 
     40 N40         3.6998    3.1089    0.2559 N.pl3     1 ****       -0.5514 
     41 H41         1.0607    2.1422   -1.0963 H         1 ****        0.3607 
     42 H42         4.4087    3.6519   -0.2086 H         1 ****        0.2911 
     43 H43         4.0282    2.1665    0.3738 H         1 ****        0.2911 
     44 C44        -3.4888    2.3936    0.1743 C.ar      1 ****       -0.0355 
     45 C45        -3.9457    3.1060   -0.9410 C.ar      1 ****       -0.1174 
     46 C46        -3.2553    4.2231   -1.4049 C.ar      1 ****       -0.1174 
     47 C47        -2.0906    4.6515   -0.7641 C.ar      1 ****       -0.0479 
     48 C48        -1.6386    3.9529    0.3585 C.ar      1 ****       -0.1174 
     49 C49        -2.3264    2.8335    0.8181 C.ar      1 ****       -0.1174 
     50 H50        -4.8318    2.7822   -1.4664 H         1 ****        0.1388 
     51 H51        -3.6180    4.7507   -2.2751 H         1 ****        0.1389 
     52 H52        -0.7437    4.2768    0.8718 H         1 ****        0.1389 
     53 H53        -1.9547    2.3137    1.6889 H         1 ****        0.1388 
     54 C54         7.5014    4.3768    0.0666 C.ar      1 ****       -0.0355 
     55 C55         7.0601    3.7982   -1.1294 C.ar      1 ****       -0.1174 
     56 C56         6.0724    4.4122   -1.8945 C.ar      1 ****       -0.1174 
     57 C57         5.5023    5.6161   -1.4766 C.ar      1 ****       -0.0479 
     58 C58         5.9485    6.2076   -0.2934 C.ar      1 ****       -0.1174 
     59 C59         6.9350    5.5913    0.4719 C.ar      1 ****       -0.1174 
     60 H60         7.4723    2.8570   -1.4634 H         1 ****        0.1388 
     61 H61         5.7347    3.9436   -2.8087 H         1 ****        0.1389 
     62 H62         5.5249    7.1467    0.0337 H         1 ****        0.1389 
     63 H63         7.2696    6.0710    1.3801 H         1 ****        0.1388 
     64 C64        -5.5974   -1.0679    1.5844 C.ar      1 ****       -0.1258 
     65 C65        -4.2055   -1.0528    1.5982 C.ar      1 ****       -0.1309 
     66 C66        -3.5239    0.0724    1.1408 C.ar      1 ****       -0.1134 
     67 C67        -4.2230    1.1901    0.6651 C.ar      1 ****       -0.0442 
     68 C68        -5.6240    1.1545    0.6587 C.ar      1 ****       -0.1134 
     69 C69        -6.3105    0.0324    1.1165 C.ar      1 ****       -0.1309 
     70 H70        -6.1278   -1.9399    1.9395 H         1 ****        0.1300 
     71 H71        -3.6552   -1.9099    1.9584 H         1 ****        0.1319 
     72 H72        -2.4434    0.0673    1.1435 H         1 ****        0.1342 
     73 H73        -6.1876    2.0074    0.3104 H         1 ****        0.1342 
     74 H74        -7.3907    0.0176    1.1110 H         1 ****        0.1319 
     75 C75        10.5230    2.4657    2.4399 C.ar      1 ****       -0.1258 
     76 C76        10.6188    2.4444    1.0514 C.ar      1 ****       -0.1309 
     77 C77         9.6369    3.0652    0.2831 C.ar      1 ****       -0.1134 
     78 C78         8.5532    3.7131    0.8918 C.ar      1 ****       -0.0442 
     79 C79         8.4758    3.7240    2.2912 C.ar      1 ****       -0.1134 
     80 C80         9.4543    3.1033    3.0638 C.ar      1 ****       -0.1309 
     81 H81        11.2834    1.9838    3.0378 H         1 ****        0.1300 
     82 H82        11.4520    1.9513    0.5717 H         1 ****        0.1319 
     83 H83         9.7296    3.0531   -0.7929 H         1 ****        0.1342 
     84 H84         7.6446    4.2034    2.7871 H         1 ****        0.1342 
     85 H85         9.3821    3.1139    4.1418 H         1 ****        0.1319 
@<TRIPOS>BOND
     1    1    2 ar   
     2    1    8 ar   
     3    1   18 1    
     4    2    3 ar   
     5    2    5 1    
     6    3    4 ar   
     7    3   47 1    
     8    4    6 1    
     9    4    7 ar   
    10    5   35 1    
    11    5   36 1    
    12    5   37 1    
    13    7    8 ar   
    14    7   12 ar   
    15    8    9 ar   
    16    9   10 ar   
    17    9   13 1    
    18   10   11 ar   
    19   10   14 1    
    20   11   12 ar   
    21   11   15 1    
    22   12   16 1    
    23   17   20 ar   
    24   17   21 1    
    25   17   23 ar   
    26   18   19 ar   
    27   18   24 ar   
    28   19   20 ar   
    29   19   22 1    
    30   20   57 1    
    31   22   33 1    
    32   22   34 1    
    33   22   35 1    
    34   23   24 ar   
    35   23   28 ar   
    36   24   25 ar   
    37   25   26 ar   
    38   25   29 1    
    39   26   27 ar   
    40   26   30 1    
    41   27   28 ar   
    42   27   31 1    
    43   28   32 1    
    44   35   39 1    
    45   38   39 2    
    46   38   41 1    
    47   39   40 1    
    48   40   42 1    
    49   40   43 1    
    50   44   45 ar   
    51   44   49 ar   
    52   44   67 1    
    53   45   46 ar   
    54   45   50 1    
    55   46   47 ar   
    56   46   51 1    
    57   47   48 ar   
    58   48   49 ar   
    59   48   52 1    
    60   49   53 1    
    61   54   55 ar   
    62   54   59 ar   
    63   54   78 1    
    64   55   56 ar   
    65   55   60 1    
    66   56   57 ar   
    67   56   61 1    
    68   57   58 ar   
    69   58   59 ar   
    70   58   62 1    
    71   59   63 1    
    72   64   65 ar   
    73   64   69 ar   
    74   64   70 1    
    75   65   66 ar   
    76   65   71 1    
    77   66   67 ar   
    78   66   72 1    
    79   67   68 ar   
    80   68   69 ar   
    81   68   73 1    
    82   69   74 1    
    83   75   76 ar   
    84   75   80 ar   
    85   75   81 1    
    86   76   77 ar   
    87   76   82 1    
    88   77   78 ar   
    89   77   83 1    
    90   78   79 ar   
    91   79   80 ar   
    92   79   84 1    
    93   80   85 1    
@<TRIPOS>SUBSTRUCTURE
     1 ****        1 GROUP             0       ****    0 ROOT    
