@<TRIPOS>MOLECULE
Structure1
53   57    1
SMALL
USER_CHARGES


@<TRIPOS>ATOM
      1 C1         -1.1132   -1.0714    0.3036 C.ar      1 ****        0.0000 
      2 C2         -3.2321   -2.9334    0.5175 C.ar      1 ****        0.0000 
      3 C3         -2.3385   -2.7512    1.5655 C.ar      1 ****        0.0000 
      4 C4         -1.3002   -1.8392    1.4618 C.ar      1 ****        0.0000 
      5 H5         -4.0370   -3.6490    0.6088 H         1 ****        0.0000 
      6 H6         -2.4456   -3.3248    2.4743 H         1 ****        0.0000 
      7 O7         -0.4507   -1.7115    2.5259 O.3       1 ****        0.0000 
      8 C8         -2.0307   -1.2341   -0.7872 C.ar      1 ****        0.0000 
      9 C9         -3.0965   -2.1826   -0.6727 C.ar      1 ****        0.0000 
     10 C10        -3.9992   -2.3541   -1.7524 C.ar      1 ****        0.0000 
     11 C11        -3.8569   -1.6061   -2.9172 C.ar      1 ****        0.0000 
     12 C12        -2.8311   -0.6771   -3.0368 C.ar      1 ****        0.0000 
     13 C13        -1.9295   -0.4834   -1.9946 C.ar      1 ****        0.0000 
     14 H14        -4.8029   -3.0714   -1.6659 H         1 ****        0.0000 
     15 H15        -4.5503   -1.7444   -3.7346 H         1 ****        0.0000 
     16 H16        -2.7321   -0.0981   -3.9444 H         1 ****        0.0000 
     17 H17        -1.1448    0.2516   -2.1089 H         1 ****        0.0000 
     18 C18         2.2297    1.6444   -0.0500 C.ar      1 ****        0.0000 
     19 C19         0.0416   -0.1186    0.2085 C.ar      1 ****        0.0000 
     20 C20         1.1383   -0.4326   -0.6095 C.ar      1 ****        0.0000 
     21 C21         2.2155    0.4438   -0.7582 C.ar      1 ****        0.0000 
     22 H22         3.0625    2.3237   -0.1690 H         1 ****        0.0000 
     23 O23         1.1371   -1.6258   -1.2869 O.3       1 ****        0.0000 
     24 C24         3.3898    0.1062   -1.6839 C.3       1 ****        0.0000 
     25 C25         1.1605    2.0024    0.7988 C.ar      1 ****        0.0000 
     26 C26         0.0446    1.1192    0.9296 C.ar      1 ****        0.0000 
     27 C27        -1.0301    1.5209    1.7743 C.ar      1 ****        0.0000 
     28 C28        -0.9877    2.7301    2.4628 C.ar      1 ****        0.0000 
     29 C29         0.1065    3.5760    2.3340 C.ar      1 ****        0.0000 
     30 C30         1.1732    3.2275    1.5117 C.ar      1 ****        0.0000 
     31 H31        -1.8949    0.8824    1.8831 H         1 ****        0.0000 
     32 H32        -1.8134    3.0151    3.0994 H         1 ****        0.0000 
     33 H33         0.1247    4.5132    2.8718 H         1 ****        0.0000 
     34 H34         2.0173    3.8944    1.4083 H         1 ****        0.0000 
     35 H35         0.1947   -1.0213    2.3495 H         1 ****        0.0000 
     36 H36         0.3096   -2.0880   -1.1189 H         1 ****        0.0000 
     37 N37         3.7405    1.2186   -2.5857 N.pl3     1 ****        0.0000 
     38 H38         4.2405   -0.1627   -1.0552 H         1 ****        0.0000 
     39 H39         3.1762   -0.7830   -2.2798 H         1 ****        0.0000 
     40 C40         5.1305    1.2574   -3.0478 C.3       1 ****        0.0000 
     41 C41         0.8581    2.7003   -5.2471 C.ar      1 ****        0.0000 
     42 C42         1.9886    3.4742   -4.9859 C.ar      1 ****        0.0000 
     43 C43         2.9465    2.9731   -4.1010 C.ar      1 ****        0.0000 
     44 C44         2.7711    1.7208   -3.4945 C.ar      1 ****        0.0000 
     45 C45         1.5961    1.0230   -3.8221 C.ar      1 ****        0.0000 
     46 N46         0.6499    1.4875   -4.6790 N.ar      1 ****        0.0000 
     47 H47         0.0900    3.0502   -5.9220 H         1 ****        0.0000 
     48 H48         3.8098    3.5744   -3.8682 H         1 ****        0.0000 
     49 H49         1.3934    0.0509   -3.4052 H         1 ****        0.0000 
     50 H50         5.8255    1.0083   -2.2444 H         1 ****        0.0000 
     51 H51         5.4219    2.2350   -3.4312 H         1 ****        0.0000 
     52 H52         5.2799    0.5426   -3.8592 H         1 ****        0.0000 
     53 H53         2.1183    4.4416   -5.4479 H         1 ****        0.0000 
@<TRIPOS>BOND
     1    1    4 ar   
     2    1    8 ar   
     3    1   19 1    
     4    2    3 ar   
     5    2    5 1    
     6    2    9 ar   
     7    3    4 ar   
     8    3    6 1    
     9    4    7 1    
    10    7   35 1    
    11    8    9 ar   
    12    8   13 ar   
    13    9   10 ar   
    14   10   11 ar   
    15   10   14 1    
    16   11   12 ar   
    17   11   15 1    
    18   12   13 ar   
    19   12   16 1    
    20   13   17 1    
    21   18   21 ar   
    22   18   22 1    
    23   18   25 ar   
    24   19   20 ar   
    25   19   26 ar   
    26   20   21 ar   
    27   20   23 1    
    28   21   24 1    
    29   23   36 1    
    30   24   37 1    
    31   24   38 1    
    32   24   39 1    
    33   25   26 ar   
    34   25   30 ar   
    35   26   27 ar   
    36   27   28 ar   
    37   27   31 1    
    38   28   29 ar   
    39   28   32 1    
    40   29   30 ar   
    41   29   33 1    
    42   30   34 1    
    43   37   40 1    
    44   37   44 1    
    45   40   50 1    
    46   40   51 1    
    47   40   52 1    
    48   41   42 ar   
    49   41   46 ar   
    50   41   47 1    
    51   42   43 ar   
    52   42   53 1    
    53   43   44 ar   
    54   43   48 1    
    55   44   45 ar   
    56   45   46 ar   
    57   45   49 1    
@<TRIPOS>SUBSTRUCTURE
     1 ****        1 GROUP             0       ****    0 ROOT    
