@<TRIPOS>MOLECULE
Structure901
42   44    1
SMALL
USER_CHARGES


@<TRIPOS>ATOM
      1 C1          6.5784    0.2228   -2.8038 C.ar      1 ****       -0.1314 
      2 C2          6.7562   -0.2467   -1.5016 C.ar      1 ****        0.0797 
      3 C3          8.0150   -0.1986   -0.9028 C.ar      1 ****       -0.1314 
      4 C4          9.1053    0.2902   -1.6188 C.ar      1 ****       -0.1068 
      5 C5          8.9259    0.7463   -2.9234 C.ar      1 ****       -0.1290 
      6 C6          7.6654    0.7215   -3.5170 C.ar      1 ****       -0.1068 
      7 H7          5.6009    0.1918   -3.2646 H         1 ****        0.1442 
      8 N8          5.6830   -0.7784   -0.7845 N.pl3     1 ****       -0.4471 
      9 H9          8.1608   -0.5623    0.1035 H         1 ****        0.1442 
     10 H10        10.0880    0.3061   -1.1696 H         1 ****        0.1389 
     11 H11         9.7743    1.1188   -3.4799 H         1 ****        0.1358 
     12 H12         7.5310    1.0796   -4.5268 H         1 ****        0.1389 
     13 H13         5.7390   -0.7722    0.2180 H         1 ****        0.2827 
     14 S14         4.8809   -2.2388   -1.3337 S.o2      1 ****        0.9089 
     15 O15         4.5288   -2.0543   -2.7437 O.2       1 ****       -0.4877 
     16 O16         3.8735   -2.5476   -0.3163 O.2       1 ****       -0.4877 
     17 C17         8.1097   -5.4754   -1.1491 C.ar      1 ****        0.0192 
     18 C18         8.1944   -4.4422   -2.0867 C.ar      1 ****       -0.2266 
     19 C19         7.2051   -3.4591   -2.1390 C.ar      1 ****        0.0685 
     20 C20         6.1300   -3.5077   -1.2503 C.ar      1 ****       -0.2266 
     21 C21         6.0435   -4.5358   -0.3073 C.ar      1 ****        0.0192 
     22 C22         7.0339   -5.5186   -0.2602 C.ar      1 ****       -0.1598 
     23 H23         8.8768   -6.2380   -1.1046 H         1 ****        0.1526 
     24 H24         7.2715   -2.6595   -2.8685 H         1 ****        0.1620 
     25 H25         5.2095   -4.5773    0.3817 H         1 ****        0.1526 
     26 H26         6.9677   -6.3156    0.4669 H         1 ****        0.1481 
     27 S27         9.5556   -4.3615   -3.2347 S.o2      1 ****        0.9089 
     28 O28        10.4433   -5.4892   -2.9422 O.2       1 ****       -0.4877 
     29 N29         8.8459   -4.7055   -4.8018 N.pl3     1 ****       -0.4471 
     30 O30        10.0384   -2.9785   -3.2545 O.2       1 ****       -0.4877 
     31 H31         8.7076   -5.6944   -4.9079 H         1 ****        0.2827 
     32 C32         5.9432   -2.1551   -6.3782 C.ar      1 ****       -0.1290 
     33 C33         7.2414   -1.6834   -6.1939 C.ar      1 ****       -0.1068 
     34 C34         8.2158   -2.5335   -5.6773 C.ar      1 ****       -0.1314 
     35 C35         7.8885   -3.8500   -5.3495 C.ar      1 ****        0.0797 
     36 C36         6.5936   -4.3250   -5.5574 C.ar      1 ****       -0.1314 
     37 C37         5.6153   -3.4726   -6.0640 C.ar      1 ****       -0.1068 
     38 H38         5.1812   -1.4932   -6.7647 H         1 ****        0.1358 
     39 H39         7.4912   -0.6627   -6.4424 H         1 ****        0.1389 
     40 H40         9.2215   -2.1683   -5.5226 H         1 ****        0.1442 
     41 H41         6.3323   -5.3416   -5.3037 H         1 ****        0.1442 
     42 H42         4.6040   -3.8272   -6.2030 H         1 ****        0.1389 
@<TRIPOS>BOND
     1    1    2 ar   
     2    1    6 ar   
     3    1    7 1    
     4    2    3 ar   
     5    2    8 1    
     6    3    4 ar   
     7    3    9 1    
     8    4    5 ar   
     9    4   10 1    
    10    5    6 ar   
    11    5   11 1    
    12    6   12 1    
    13    8   13 1    
    14    8   14 1    
    15   14   15 2    
    16   14   16 2    
    17   14   20 1    
    18   17   18 ar   
    19   17   22 ar   
    20   17   23 1    
    21   18   19 ar   
    22   18   27 1    
    23   19   20 ar   
    24   19   24 1    
    25   20   21 ar   
    26   21   22 ar   
    27   21   25 1    
    28   22   26 1    
    29   27   28 2    
    30   27   29 1    
    31   27   30 2    
    32   29   31 1    
    33   29   35 1    
    34   32   33 ar   
    35   32   37 ar   
    36   32   38 1    
    37   33   34 ar   
    38   33   39 1    
    39   34   35 ar   
    40   34   40 1    
    41   35   36 ar   
    42   36   37 ar   
    43   36   41 1    
    44   37   42 1    
@<TRIPOS>SUBSTRUCTURE
     1 ****        1 GROUP             0       ****    0 ROOT    
