@<TRIPOS>MOLECULE
allyl_ts_46_reopt.out
20   18    1
SMALL
USER_CHARGES


@<TRIPOS>ATOM
      1 C           1.1986   -0.2027    0.7022 C.cat     1 UNL         0.1585 
      2 C          -1.6805   -0.3159    1.0702 C.2       1 UNL         0.0999 
      3 C           0.4250    1.9340   -0.1145 C.3       1 UNL         0.0199 
      4 C          -1.8362    0.9500    1.4806 C.2       1 UNL        -0.3000 
      5 N           0.9776    0.6099   -0.3639 N.pl3     1 UNL         0.1478 
      6 H          -1.8472    1.1715    2.5400 H         1 UNL         0.1500 
      7 H          -0.3476    2.1710   -0.8486 H         1 UNL         0.1260 
      8 H          -1.5696   -1.1181    1.7903 H         1 UNL         0.1500 
      9 H           1.2112    2.6889   -0.1750 H         1 UNL         0.1260 
     10 H           1.0163    0.1584    1.7063 H         1 UNL         0.1500 
     11 H          -2.0927    1.7330    0.7813 H         1 UNL         0.1500 
     12 F          -1.7093   -0.5933   -0.2330 F         1 UNL        -0.2499 
     13 C           1.7221   -1.6258    0.5258 C.3       1 UNL        -0.1146 
     14 H           1.7655   -2.1153    1.4995 H         1 UNL         0.0382 
     15 H           1.0561   -2.1965   -0.1221 H         1 UNL         0.0382 
     16 H           2.7252   -1.6083    0.0987 H         1 UNL         0.0382 
     17 C           1.2114    0.1504   -1.7312 C.3       1 UNL        -0.1062 
     18 H           1.0703    0.9607   -2.4480 H         1 UNL         0.1260 
     19 H           2.2303   -0.2246   -1.8413 H         1 UNL         0.1260 
     20 H           0.5109   -0.6496   -1.9798 H         1 UNL         0.1260 
@<TRIPOS>BOND
     1    1   10 1    
     2    1   13 1    
     3    1    5 ar   
     4    2    8 1    
     5    2    4 2    
     6    2   12 1    
     7    3    7 1    
     8    3    5 1    
     9    3    9 1    
    10    4    6 1    
    11    4   11 1    
    12    5   17 1    
    13   13   14 1    
    14   13   15 1    
    15   13   16 1    
    16   17   20 1    
    17   17   18 1    
    18   17   19 1    
@<TRIPOS>SUBSTRUCTURE
     1 UNL         1 GROUP             0       ****    0 ROOT    
