@<TRIPOS>MOLECULE
Structure2
106   110    2
SMALL
USER_CHARGES


@<TRIPOS>ATOM
      1 C1         -2.1109    0.6771   -2.7109 C.2       1 ****        0.0000 
      2 C2         -1.2138   -0.2060   -3.4409 C.2       1 ****        0.0000 
      3 C3         -0.7144   -2.4655   -4.5467 C.3       1 ****        0.0000 
      4 C4         -2.6062   -3.8410   -2.0668 C.2       1 ****        0.0000 
      5 O5          0.0658    0.1671   -3.5966 O.3       1 ****        0.0000 
      6 H6         -0.6212   -3.3926   -3.9836 H         1 ****        0.0000 
      7 H7          0.2965   -2.0822   -4.6832 H         1 ****        0.0000 
      8 H8         -1.1085   -2.7110   -5.5331 H         1 ****        0.0000 
      9 O9         -1.8339   -4.7950   -1.9378 O.2       1 ****        0.0000 
     10 O10        -3.9059   -3.9096   -2.4330 O.3       1 ****        0.0000 
     11 C11        -4.5087   -5.1714   -2.6797 C.3       1 ****        0.0000 
     12 H12        -4.4771   -5.8017   -1.7894 H         1 ****        0.0000 
     13 H13        -5.5530   -5.0357   -2.9617 H         1 ****        0.0000 
     14 H14        -4.0028   -5.6970   -3.4913 H         1 ****        0.0000 
     15 Si15        0.7049    1.0568   -4.8686 Si        1 ****        0.0000 
     16 C16         2.3521    0.2678   -5.3043 C.3       1 ****        0.0000 
     17 H17         2.7621    0.6978   -6.2169 H         1 ****        0.0000 
     18 H18         3.0785    0.4240   -4.5089 H         1 ****        0.0000 
     19 H19         2.2455   -0.8045   -5.4594 H         1 ****        0.0000 
     20 C20        -0.4458    0.9228   -6.3492 C.3       1 ****        0.0000 
     21 H21        -0.0683    1.4955   -7.1948 H         1 ****        0.0000 
     22 H22        -1.4387    1.2988   -6.1057 H         1 ****        0.0000 
     23 H23        -0.5544   -0.1134   -6.6655 H         1 ****        0.0000 
     24 C24         0.9502    2.8774   -4.3032 C.3       1 ****        0.0000 
     25 C25         1.5076    2.9131   -2.8638 C.3       1 ****        0.0000 
     26 H26         1.6540    3.9336   -2.5074 H         1 ****        0.0000 
     27 H27         0.8318    2.4177   -2.1650 H         1 ****        0.0000 
     28 H28         2.4702    2.4051   -2.7916 H         1 ****        0.0000 
     29 C29         1.9477    3.6051   -5.2313 C.3       1 ****        0.0000 
     30 H30         2.9309    3.1331   -5.2159 H         1 ****        0.0000 
     31 H31         2.0889    4.6457   -4.9346 H         1 ****        0.0000 
     32 H32         1.6026    3.6087   -6.2663 H         1 ****        0.0000 
     33 C33        -0.3837    3.6550   -4.3440 C.3       1 ****        0.0000 
     34 H34        -0.2609    4.6865   -4.0109 H         1 ****        0.0000 
     35 H35        -0.7955    3.6927   -5.3533 H         1 ****        0.0000 
     36 H36        -1.1396    3.1984   -3.7064 H         1 ****        0.0000 
     37 C41        -2.1541   -2.3574   -1.8399 C.2       1 ****        0.0000 
     38 C42        -1.6276   -1.4406   -3.8613 C.2       1 ****        0.0000 
     39 C43        -3.4178    0.4078   -2.4548 C.2       1 ****        0.0000 
     40 O44        -2.9582   -1.4762   -1.4402 O.2       1 ****        0.0000 
     41 H45        -1.0676   -2.2691   -1.7855 H         1 ****        0.0000 
     42 C42        -4.2735    1.2590   -1.5336 C.3       1 ****        0.0000 
     43 H47        -1.6737    1.5489   -2.2467 H         1 ****        0.0000 
     44 H48        -2.6899   -1.6599   -3.9622 H         1 ****        0.0000 
     45 C1          1.6965   -3.9361   -1.3588 C.ar      1 ****        0.0000 
     46 C2          2.4895   -3.2973   -2.3054 C.ar      1 ****        0.0000 
     47 C3          2.6115   -1.9148   -2.2986 C.ar      1 ****        0.0000 
     48 C4          1.9474   -1.1510   -1.3431 C.ar      1 ****        0.0000 
     49 H5          1.5893   -5.0116   -1.3795 H         1 ****        0.0000 
     50 H6          3.0071   -3.8778   -3.0558 H         1 ****        0.0000 
     51 H7          3.2236   -1.4292   -3.0439 H         1 ****        0.0000 
     52 H8          2.0403   -0.0754   -1.3741 H         1 ****        0.0000 
     53 C9          1.0083   -3.1851   -0.3735 C.ar      1 ****        0.0000 
     54 C10         1.1382   -1.7629   -0.3412 C.ar      1 ****        0.0000 
     55 C11         0.4372   -1.0189    0.6691 C.ar      1 ****        0.0000 
     56 C12        -0.4439   -1.7005    1.5318 C.ar      1 ****        0.0000 
     57 C13        -0.5669   -3.0977    1.4945 C.ar      1 ****        0.0000 
     58 C14         0.1729   -3.8236    0.5634 C.ar      1 ****        0.0000 
     59 O15        -1.1944   -0.9821    2.4266 O.3       1 ****        0.0000 
     60 H16         0.0809   -4.9000    0.5278 H         1 ****        0.0000 
     61 C17         0.9073    3.2766    0.7367 C.ar      1 ****        0.0000 
     62 C18        -0.3533    2.7170    0.5462 C.ar      1 ****        0.0000 
     63 C19        -0.5124    1.3251    0.6130 C.ar      1 ****        0.0000 
     64 C20         0.6012    0.4753    0.7763 C.ar      1 ****        0.0000 
     65 H21         1.0245    4.3500    0.6986 H         1 ****        0.0000 
     66 O22        -1.7589    0.7747    0.4497 O.3       1 ****        0.0000 
     67 C23         1.8876    1.0541    1.0470 C.ar      1 ****        0.0000 
     68 C24         2.0330    2.4746    1.0120 C.ar      1 ****        0.0000 
     69 C25         3.3024    3.0594    1.2506 C.ar      1 ****        0.0000 
     70 C26         4.4050    2.2606    1.5353 C.ar      1 ****        0.0000 
     71 C27         4.2746    0.8794    1.5931 C.ar      1 ****        0.0000 
     72 C28         3.0421    0.2767    1.3578 C.ar      1 ****        0.0000 
     73 H29         3.4080    4.1344    1.2190 H         1 ****        0.0000 
     74 H30         5.3672    2.7159    1.7223 H         1 ****        0.0000 
     75 H31         5.1351    0.2684    1.8261 H         1 ****        0.0000 
     76 H32         2.9620   -0.7988    1.4178 H         1 ****        0.0000 
     77 C33        -3.2202   -5.2088    4.1199 C.ar      1 ****        0.0000 
     78 C34        -2.3609   -4.2434    4.6378 C.ar      1 ****        0.0000 
     79 C35        -1.4996   -3.5585    3.7846 C.ar      1 ****        0.0000 
     80 C36        -1.4904   -3.8290    2.4108 C.ar      1 ****        0.0000 
     81 C37        -2.3631   -4.8028    1.9070 C.ar      1 ****        0.0000 
     82 C38        -3.2253   -5.4915    2.7566 C.ar      1 ****        0.0000 
     83 H39        -3.8929   -5.7364    4.7807 H         1 ****        0.0000 
     84 H40        -2.3655   -4.0191    5.6946 H         1 ****        0.0000 
     85 H41        -0.8405   -2.8049    4.1921 H         1 ****        0.0000 
     86 H42        -2.3827   -5.0205    0.8488 H         1 ****        0.0000 
     87 H43        -3.8994   -6.2357    2.3585 H         1 ****        0.0000 
     88 P44        -2.3205   -0.0239    1.7499 P.3       1 ****        0.0000 
     89 O45        -3.0216    0.8410    2.7326 O.2       1 ****        0.0000 
     90 O46        -3.3061   -1.0878    1.0527 O.3       2 UNK         0.0000 
     91 H47        -3.2459   -1.0360    0.0711 H         2 UNK         0.0000 
     92 C48        -3.6387    5.3144   -0.3383 C.ar      1 ****        0.0000 
     93 C49        -3.6651    4.5410    0.8195 C.ar      1 ****        0.0000 
     94 C50        -2.5936    3.7015    1.1120 C.ar      1 ****        0.0000 
     95 C51        -1.4960    3.6225    0.2498 C.ar      1 ****        0.0000 
     96 C52        -1.4768    4.4180   -0.9008 C.ar      1 ****        0.0000 
     97 C53        -2.5459    5.2588   -1.1999 C.ar      1 ****        0.0000 
     98 H54        -4.4715    5.9638   -0.5668 H         1 ****        0.0000 
     99 H55        -4.5104    4.5863    1.4912 H         1 ****        0.0000 
    100 H56        -2.6161    3.1150    2.0178 H         1 ****        0.0000 
    101 H57        -0.6327    4.3743   -1.5716 H         1 ****        0.0000 
    102 H58        -2.5281    5.8616   -2.0961 H         1 ****        0.0000 
    103 H43        -3.9807   -0.3607   -2.9761 H         1 ****        0.0000 
    104 H104       -4.6501    0.6634   -0.7020 H         1 ****        0.0000 
    105 H105       -3.7070    2.0912   -1.1139 H         1 ****        0.0000 
    106 H106       -5.1234    1.6712   -2.0767 H         1 ****        0.0000 
@<TRIPOS>BOND
     1    1    2 1    
     2    1   39 2    
     3    1   43 1    
     4    2    5 1    
     5    2   38 2    
     6    3    6 1    
     7    3    7 1    
     8    3    8 1    
     9    3   38 1    
    10    4    9 2    
    11    4   10 1    
    12    4   37 1    
    13    5   15 1    
    14   10   11 1    
    15   11   12 1    
    16   11   13 1    
    17   11   14 1    
    18   15   16 1    
    19   15   20 1    
    20   15   24 1    
    21   16   17 1    
    22   16   18 1    
    23   16   19 1    
    24   20   21 1    
    25   20   22 1    
    26   20   23 1    
    27   24   25 1    
    28   24   29 1    
    29   24   33 1    
    30   25   26 1    
    31   25   27 1    
    32   25   28 1    
    33   29   30 1    
    34   29   31 1    
    35   29   32 1    
    36   33   34 1    
    37   33   35 1    
    38   33   36 1    
    39   37   40 2    
    40   37   41 1    
    41   38   44 1    
    42   39   42 1    
    43   39  103 1    
    44   42  104 1    
    45   42  105 1    
    46   42  106 1    
    47   45   46 ar   
    48   45   49 1    
    49   45   53 ar   
    50   46   47 ar   
    51   46   50 1    
    52   47   48 ar   
    53   47   51 1    
    54   48   52 1    
    55   48   54 ar   
    56   53   54 ar   
    57   53   58 ar   
    58   54   55 ar   
    59   55   56 ar   
    60   55   64 1    
    61   56   57 ar   
    62   56   59 1    
    63   57   58 ar   
    64   57   80 1    
    65   58   60 1    
    66   59   88 1    
    67   61   62 ar   
    68   61   65 1    
    69   61   68 ar   
    70   62   63 ar   
    71   62   95 1    
    72   63   64 ar   
    73   63   66 1    
    74   64   67 ar   
    75   66   88 1    
    76   67   68 ar   
    77   67   72 ar   
    78   68   69 ar   
    79   69   70 ar   
    80   69   73 1    
    81   70   71 ar   
    82   70   74 1    
    83   71   72 ar   
    84   71   75 1    
    85   72   76 1    
    86   77   78 ar   
    87   77   82 ar   
    88   77   83 1    
    89   78   79 ar   
    90   78   84 1    
    91   79   80 ar   
    92   79   85 1    
    93   80   81 ar   
    94   81   82 ar   
    95   81   86 1    
    96   82   87 1    
    97   88   89 2    
    98   88   90 1    
    99   90   91 1    
   100   92   93 ar   
   101   92   97 ar   
   102   92   98 1    
   103   93   94 ar   
   104   93   99 1    
   105   94   95 ar   
   106   94  100 1    
   107   95   96 ar   
   108   96   97 ar   
   109   96  101 1    
   110   97  102 1    
@<TRIPOS>SUBSTRUCTURE
     1 ****        1 GROUP             0       ****    0 ROOT    
     2 UNK        90 GROUP             0       ****    0 ROOT    
