@<TRIPOS>MOLECULE
Structure2
106   110    2
SMALL
USER_CHARGES


@<TRIPOS>ATOM
      1 C1         -2.2927    0.8207   -2.4987 C.2       1 ****        0.0000 
      2 C2         -1.3555    0.0420   -3.2990 C.2       1 ****        0.0000 
      3 C3         -0.7559   -2.1064   -4.5631 C.3       1 ****        0.0000 
      4 C4         -2.5339   -3.7484   -2.1654 C.2       1 ****        0.0000 
      5 O5         -0.0915    0.4744   -3.4509 O.3       1 ****        0.0000 
      6 H6          0.2320   -1.6622   -4.6802 H         1 ****        0.0000 
      7 H7         -1.1485   -2.3006   -5.5614 H         1 ****        0.0000 
      8 H8         -0.6083   -3.0655   -4.0694 H         1 ****        0.0000 
      9 O9         -1.7156   -4.6700   -2.1019 O.2       1 ****        0.0000 
     10 O10        -3.8305   -3.8559   -2.5333 O.3       1 ****        0.0000 
     11 C11        -4.3716   -5.1260   -2.8659 C.3       1 ****        0.0000 
     12 H12        -5.4227   -5.0231   -3.1360 H         1 ****        0.0000 
     13 H13        -3.8445   -5.5683   -3.7128 H         1 ****        0.0000 
     14 H14        -4.3042   -5.8140   -2.0215 H         1 ****        0.0000 
     15 Si15        0.4526    1.9414   -4.0654 Si        1 ****        0.0000 
     16 C16        -0.9951    3.0875   -4.4332 C.3       1 ****        0.0000 
     17 H17        -0.6624    3.9898   -4.9433 H         1 ****        0.0000 
     18 H18        -1.7283    2.5953   -5.0708 H         1 ****        0.0000 
     19 H19        -1.5044    3.3946   -3.5220 H         1 ****        0.0000 
     20 C20         1.5346    2.7104   -2.7398 C.3       1 ****        0.0000 
     21 H21         2.4433    2.1309   -2.5871 H         1 ****        0.0000 
     22 H22         1.0071    2.7464   -1.7892 H         1 ****        0.0000 
     23 H23         1.8249    3.7258   -3.0042 H         1 ****        0.0000 
     24 C24         1.4567    1.5883   -5.6653 C.3       1 ****        0.0000 
     25 C25         0.5384    1.0051   -6.7612 C.3       1 ****        0.0000 
     26 H26         1.0904    0.7801   -7.6749 H         1 ****        0.0000 
     27 H27         0.0636    0.0795   -6.4340 H         1 ****        0.0000 
     28 H28        -0.2586    1.6999   -7.0293 H         1 ****        0.0000 
     29 C29         2.0893    2.8894   -6.2061 C.3       1 ****        0.0000 
     30 H30         1.3309    3.6348   -6.4491 H         1 ****        0.0000 
     31 H31         2.6649    2.7099   -7.1155 H         1 ****        0.0000 
     32 H32         2.7682    3.3380   -5.4795 H         1 ****        0.0000 
     33 C33         2.5911    0.5790   -5.3870 C.3       1 ****        0.0000 
     34 H34         3.1728    0.3675   -6.2856 H         1 ****        0.0000 
     35 H35         3.2857    0.9518   -4.6333 H         1 ****        0.0000 
     36 H36         2.1968   -0.3719   -5.0287 H         1 ****        0.0000 
     37 C41        -2.1540   -2.2630   -1.8394 C.2       1 ****        0.0000 
     38 C42        -1.7111   -1.1809   -3.7981 C.2       1 ****        0.0000 
     39 C43        -3.5790    0.4615   -2.2488 C.2       1 ****        0.0000 
     40 O44        -2.9961   -1.4556   -1.3686 O.2       1 ****        0.0000 
     41 H45        -1.0723   -2.1219   -1.7922 H         1 ****        0.0000 
     42 C42        -4.4682    1.2005   -1.2647 C.3       1 ****        0.0000 
     43 H47        -1.9030    1.6842   -1.9799 H         1 ****        0.0000 
     44 H48        -2.7615   -1.4501   -3.9014 H         1 ****        0.0000 
     45 C1          1.7440   -3.7404   -1.4459 C.ar      1 ****        0.0000 
     46 C2          2.5290   -3.0325   -2.3496 C.ar      1 ****        0.0000 
     47 C3          2.6283   -1.6509   -2.2593 C.ar      1 ****        0.0000 
     48 C4          1.9476   -0.9582   -1.2627 C.ar      1 ****        0.0000 
     49 H5          1.6552   -4.8144   -1.5316 H         1 ****        0.0000 
     50 H6          3.0587   -3.5583   -3.1313 H         1 ****        0.0000 
     51 H7          3.2357   -1.1092   -2.9695 H         1 ****        0.0000 
     52 H8          2.0250    0.1179   -1.2257 H         1 ****        0.0000 
     53 C9          1.0395   -3.0617   -0.4202 C.ar      1 ****        0.0000 
     54 C10         1.1444   -1.6422   -0.3040 C.ar      1 ****        0.0000 
     55 C11         0.4250   -0.9710    0.7426 C.ar      1 ****        0.0000 
     56 C12        -0.4485   -1.7149    1.5601 C.ar      1 ****        0.0000 
     57 C13        -0.5447   -3.1100    1.4428 C.ar      1 ****        0.0000 
     58 C14         0.2124   -3.7679    0.4751 C.ar      1 ****        0.0000 
     59 O15        -1.2169   -1.0599    2.4886 O.3       1 ****        0.0000 
     60 H16         0.1404   -4.8420    0.3769 H         1 ****        0.0000 
     61 C17         0.7948    3.3237    1.0114 C.ar      1 ****        0.0000 
     62 C18        -0.4472    2.7426    0.7692 C.ar      1 ****        0.0000 
     63 C19        -0.5753    1.3468    0.7825 C.ar      1 ****        0.0000 
     64 C20         0.5551    0.5179    0.9266 C.ar      1 ****        0.0000 
     65 H21         0.8870    4.4003    1.0190 H         1 ****        0.0000 
     66 O22        -1.8060    0.7719    0.5885 O.3       1 ****        0.0000 
     67 C23         1.8228    1.1127    1.2434 C.ar      1 ****        0.0000 
     68 C24         1.9343    2.5365    1.2757 C.ar      1 ****        0.0000 
     69 C25         3.1849    3.1384    1.5649 C.ar      1 ****        0.0000 
     70 C26         4.3014    2.3525    1.8317 C.ar      1 ****        0.0000 
     71 C27         4.2036    0.9673    1.8205 C.ar      1 ****        0.0000 
     72 C28         2.9901    0.3479    1.5353 C.ar      1 ****        0.0000 
     73 H29         3.2656    4.2158    1.5850 H         1 ****        0.0000 
     74 H30         5.2491    2.8205    2.0572 H         1 ****        0.0000 
     75 H31         5.0748    0.3661    2.0389 H         1 ****        0.0000 
     76 H32         2.9341   -0.7308    1.5416 H         1 ****        0.0000 
     77 C33        -3.1694   -5.4148    3.9306 C.ar      1 ****        0.0000 
     78 C34        -3.1607   -5.6226    2.5539 C.ar      1 ****        0.0000 
     79 C35        -2.3078   -4.8713    1.7492 C.ar      1 ****        0.0000 
     80 C36        -1.4582   -3.9090    2.3113 C.ar      1 ****        0.0000 
     81 C37        -1.4810   -3.7144    3.6978 C.ar      1 ****        0.0000 
     82 C38        -2.3331   -4.4621    4.5063 C.ar      1 ****        0.0000 
     83 H39        -3.8349   -5.9913    4.5569 H         1 ****        0.0000 
     84 H40        -3.8170   -6.3575    2.1113 H         1 ****        0.0000 
     85 H41        -2.3167   -5.0318    0.6808 H         1 ****        0.0000 
     86 H42        -0.8398   -2.9712    4.1505 H         1 ****        0.0000 
     87 H43        -2.3484   -4.2962    5.5737 H         1 ****        0.0000 
     88 P44        -2.3535   -0.0807    1.8603 P.3       1 ****        0.0000 
     89 O45        -3.0478    0.7442    2.8816 O.2       1 ****        0.0000 
     90 O46        -3.3410   -1.1225    1.1331 O.3       2 UNK         0.0000 
     91 H47        -3.2788   -1.0491    0.1531 H         2 UNK         0.0000 
     92 C48        -3.7754    5.2792   -0.1196 C.ar      1 ****        0.0000 
     93 C49        -3.7982    4.4907    1.0282 C.ar      1 ****        0.0000 
     94 C50        -2.7126    3.6701    1.3221 C.ar      1 ****        0.0000 
     95 C51        -1.6039    3.6279    0.4717 C.ar      1 ****        0.0000 
     96 C52        -1.5888    4.4359   -0.6707 C.ar      1 ****        0.0000 
     97 C53        -2.6730    5.2570   -0.9705 C.ar      1 ****        0.0000 
     98 H54        -4.6197    5.9132   -0.3495 H         1 ****        0.0000 
     99 H55        -4.6523    4.5089    1.6899 H         1 ****        0.0000 
    100 H56        -2.7338    3.0675    2.2179 H         1 ****        0.0000 
    101 H57        -0.7382    4.4165   -1.3359 H         1 ****        0.0000 
    102 H58        -2.6605    5.8706   -1.8596 H         1 ****        0.0000 
    103 H43        -4.1059   -0.3016   -2.8139 H         1 ****        0.0000 
    104 H104       -5.3369    1.6150   -1.7754 H         1 ****        0.0000 
    105 H105       -4.8169    0.5274   -0.4816 H         1 ****        0.0000 
    106 H106       -3.9376    2.0228   -0.7829 H         1 ****        0.0000 
@<TRIPOS>BOND
     1    1    2 1    
     2    1   39 2    
     3    1   43 1    
     4    2    5 1    
     5    2   38 2    
     6    3    6 1    
     7    3    7 1    
     8    3    8 1    
     9    3   38 1    
    10    4    9 2    
    11    4   10 1    
    12    4   37 1    
    13    5   15 1    
    14   10   11 1    
    15   11   12 1    
    16   11   13 1    
    17   11   14 1    
    18   15   16 1    
    19   15   20 1    
    20   15   24 1    
    21   16   17 1    
    22   16   18 1    
    23   16   19 1    
    24   20   21 1    
    25   20   22 1    
    26   20   23 1    
    27   24   25 1    
    28   24   29 1    
    29   24   33 1    
    30   25   26 1    
    31   25   27 1    
    32   25   28 1    
    33   29   30 1    
    34   29   31 1    
    35   29   32 1    
    36   33   34 1    
    37   33   35 1    
    38   33   36 1    
    39   37   40 2    
    40   37   41 1    
    41   38   44 1    
    42   39   42 1    
    43   39  103 1    
    44   42  104 1    
    45   42  105 1    
    46   42  106 1    
    47   45   46 ar   
    48   45   49 1    
    49   45   53 ar   
    50   46   47 ar   
    51   46   50 1    
    52   47   48 ar   
    53   47   51 1    
    54   48   52 1    
    55   48   54 ar   
    56   53   54 ar   
    57   53   58 ar   
    58   54   55 ar   
    59   55   56 ar   
    60   55   64 1    
    61   56   57 ar   
    62   56   59 1    
    63   57   58 ar   
    64   57   80 1    
    65   58   60 1    
    66   59   88 1    
    67   61   62 ar   
    68   61   65 1    
    69   61   68 ar   
    70   62   63 ar   
    71   62   95 1    
    72   63   64 ar   
    73   63   66 1    
    74   64   67 ar   
    75   66   88 1    
    76   67   68 ar   
    77   67   72 ar   
    78   68   69 ar   
    79   69   70 ar   
    80   69   73 1    
    81   70   71 ar   
    82   70   74 1    
    83   71   72 ar   
    84   71   75 1    
    85   72   76 1    
    86   77   78 ar   
    87   77   82 ar   
    88   77   83 1    
    89   78   79 ar   
    90   78   84 1    
    91   79   80 ar   
    92   79   85 1    
    93   80   81 ar   
    94   81   82 ar   
    95   81   86 1    
    96   82   87 1    
    97   88   89 2    
    98   88   90 1    
    99   90   91 1    
   100   92   93 ar   
   101   92   97 ar   
   102   92   98 1    
   103   93   94 ar   
   104   93   99 1    
   105   94   95 ar   
   106   94  100 1    
   107   95   96 ar   
   108   96   97 ar   
   109   96  101 1    
   110   97  102 1    
@<TRIPOS>SUBSTRUCTURE
     1 ****        1 GROUP             0       ****    0 ROOT    
     2 UNK        90 GROUP             0       ****    0 ROOT    
