@<TRIPOS>MOLECULE
cyclic_ts_133_reopt.out
22   21    1
SMALL
USER_CHARGES


@<TRIPOS>ATOM
      1 C           2.4948   -0.5017    0.0821 C.3       1 UNL         0.4470 
      2 C           0.1128   -0.5719    0.0677 C.3       1 UNL        -0.0764 
      3 C           2.1814    1.6733    0.2854 C.3       1 UNL         0.1118 
      4 C          -0.2173    0.8264    0.6117 C.3       1 UNL         0.0118 
      5 N           2.8010    0.5855    1.0285 N.3       1 UNL        -0.6000 
      6 H           0.0141   -0.5679   -1.0194 H         1 UNL         0.0382 
      7 H          -0.5791   -1.3039    0.4868 H         1 UNL         0.0382 
      8 H           2.6366    2.6276    0.5521 H         1 UNL         0.0382 
      9 H          -1.1951    1.1279    0.2323 H         1 UNL         0.0382 
     10 O           2.6775    0.0308   -1.2309 O.3       1 UNL        -0.4000 
     11 C           2.4308    1.3352   -1.1817 C.2       1 UNL         0.5500 
     12 O           2.4101    2.0861   -2.1140 O.2       1 UNL        -0.4500 
     13 C          -0.2275    0.8222    2.1434 C.2       1 UNL         0.5500 
     14 O           0.6642    0.3872    2.8234 O.2       1 UNL        -0.4500 
     15 O          -1.3546    1.3705    2.6010 O.3       1 UNL        -0.4000 
     16 C          -1.4583    1.4124    4.0301 C.3       1 UNL         0.1354 
     17 H          -2.4088    1.8731    4.2987 H         1 UNL         0.0382 
     18 H          -0.6489    2.0078    4.4560 H         1 UNL         0.0382 
     19 H          -1.4291    0.4039    4.4464 H         1 UNL         0.0382 
     20 C           3.3109   -1.6694    0.3498 C.1       1 UNL         0.4420 
     21 N           3.9566   -2.6086    0.5866 N.1       1 UNL        -0.4890 
     22 H           2.3133    0.4173    1.9052 H         1 UNL         0.3500 
@<TRIPOS>BOND
     1    1   10 1    
     2    1   20 1    
     3    1    5 1    
     4    2    6 1    
     5    2    4 1    
     6    2    7 1    
     7    3   11 1    
     8    3    5 1    
     9    3    8 1    
    10    4   13 1    
    11    4    9 1    
    12    5   22 1    
    13   10   11 1    
    14   11   12 2    
    15   13   14 2    
    16   13   15 1    
    17   15   16 1    
    18   16   19 1    
    19   16   18 1    
    20   16   17 1    
    21   20   21 3    
@<TRIPOS>SUBSTRUCTURE
     1 UNL         1 GROUP             0       ****    0 ROOT    
