@<TRIPOS>MOLECULE
*****
 22 21 0 0 0
SMALL
GASTEIGER

@<TRIPOS>ATOM
      1 C           1.9260    0.1722   -0.0050 C.2     1  UNL1       -0.0188
      2 C           0.7332   -1.5610    0.2678 C.2     2  UNL2       -0.5041
      3 C           0.4112    1.2555    1.0750 C.2     1  UNL1       -0.1989
      4 C          -0.5310   -1.0586    0.8293 C.2     2  UNL2       -0.3947
      5 N           1.7025    0.7364    1.2998 N.3     1  UNL1       -0.5677
      6 H           0.6664   -1.9557   -0.7531 H       2  UNL2       -0.2417
      7 H           1.3297   -2.1646    0.9585 H       2  UNL2       -0.2417
      8 H          -0.2593    1.6608    1.8195 H       1  UNL1       -0.1836
      9 H          -0.6848   -1.0875    1.9035 H       2  UNL2       -0.2298
     10 O           1.2051    0.8334   -1.0306 O.3     1  UNL1       -0.6294
     11 C           0.2136    1.5119   -0.3666 C.2     1  UNL1        0.1321
     12 O          -0.6834    2.1731   -0.8537 O.2     1  UNL1       -0.2924
     13 C          -1.7411   -0.9446   -0.0186 C.2     2  UNL2        0.1236
     14 O          -1.7938   -1.2870   -1.1870 O.2     2  UNL2       -0.2932
     15 O          -2.7058   -0.3299    0.7041 O.3     2  UNL2       -0.4951
     16 C          -3.8640   -0.0087   -0.0696 C.3     2  UNL2        0.0788
     17 H          -4.6046    0.4407    0.5972 H       2  UNL2        0.0660
     18 H          -4.2985   -0.9112   -0.5123 H       2  UNL2        0.0660
     19 H          -3.6099    0.7200   -0.8471 H       2  UNL2        0.0660
     20 C           3.2267   -0.3490   -0.3333 C.1     1  UNL1       -0.0676
     21 N           4.2764   -0.7867   -0.5670 N.1     1  UNL1       -0.2306
     22 H           2.0140    0.2830    2.1522 H       1  UNL1        0.0569
@<TRIPOS>BOND
     1    14    13    2
     2    10    11    1
     3    10     1    1
     4    19    16    1
     5    12    11    2
     6     6     2    1
     7    21    20    3
     8    18    16    1
     9    20     1    1
    10    11     3    1
    11    16    17    1
    12    16    15    1
    13    13    15    1
    14    13     4    1
    15     1     5    1
    16     2     4    1
    17     2     7    1
    18     4     9    1
    19     3     5    1
    20     3     8    1
    21     5    22    1
