@<TRIPOS>MOLECULE
1c_2m_endo_adj_1_reopt2.out
16   14    1
SMALL
USER_CHARGES


@<TRIPOS>ATOM
      1 O           0.9346   -0.6353    2.0237 O.2       1 UNL        -0.4525 
      2 C          -0.3445    1.4708    0.8958 C.2       1 UNL        -0.1540 
      3 C           1.2820   -0.9501   -0.8102 C.2       1 UNL        -0.1540 
      4 C          -0.6079    1.2324   -0.4036 C.2       1 UNL        -0.1882 
      5 C           0.7776   -1.7236    1.4678 C.2       1 UNL         0.3512 
      6 C           0.7699   -1.8786    0.0223 C.2       1 UNL        -0.1882 
      7 H           0.6012   -2.6291    2.0490 H         1 UNL         0.0417 
      8 H           1.7511   -0.0476   -0.4408 H         1 UNL         0.1241 
      9 H           0.3254   -2.7863   -0.3572 H         1 UNL         0.1536 
     10 H           0.5629    1.9769    1.1935 H         1 UNL         0.1241 
     11 H          -1.0115    1.1659    1.6916 H         1 UNL         0.1241 
     12 H           0.0618    1.5427   -1.1919 H         1 UNL         0.1536 
     13 C          -1.8155    0.5552   -0.8240 C.2       1 UNL         0.3512 
     14 O          -2.0177    0.2793   -2.0037 O.2       1 UNL        -0.4525 
     15 H           1.2458   -1.0838   -1.8823 H         1 UNL         0.1241 
     16 H          -2.5351    0.2906   -0.0481 H         1 UNL         0.0417 
@<TRIPOS>BOND
     1    1    5 2    
     2    2   11 1    
     3    2    4 2    
     4    2   10 1    
     5    3    6 2    
     6    3   15 1    
     7    3    8 1    
     8    4   13 1    
     9    4   12 1    
    10    5    7 1    
    11    5    6 1    
    12    6    9 1    
    13   13   14 2    
    14   13   16 1    
@<TRIPOS>SUBSTRUCTURE
     1 UNL         1 GROUP             0       ****    0 ROOT    
