@<TRIPOS>MOLECULE
1d_2b_endo_2_reopt3.out
22   21    1
SMALL
USER_CHARGES


@<TRIPOS>ATOM
      1 C          -2.2126    0.4463   -0.1258 C.2       1 UNL        -0.1591 
      2 C          -0.0392   -0.2511    1.7851 C.2       1 UNL        -0.1825 
      3 C          -0.2543    2.7452    0.0040 C.2       1 UNL        -0.2234 
      4 C           0.9097    0.6944    1.7202 C.2       1 UNL        -0.1825 
      5 C          -1.2954    0.7537   -1.0631 C.2       1 UNL        -0.1478 
      6 C          -0.4323    1.9240   -1.0472 C.2       1 UNL        -0.1362 
      7 H           0.4224    3.5849   -0.0669 H         1 UNL         0.1171 
      8 H          -0.7780    2.6145    0.9380 H         1 UNL         0.1171 
      9 H          -2.3785    1.1056    0.7137 H         1 UNL         0.1220 
     10 H          -1.0007   -0.2439    2.2737 H         1 UNL         0.1943 
     11 H           0.9436    1.6850    2.1450 H         1 UNL         0.1943 
     12 O           1.6560   -1.0826    0.6004 O.3       1 UNL        -0.2262 
     13 C           0.4525   -1.3974    1.0681 C.2       1 UNL         0.4441 
     14 C           1.9989    0.1521    0.9538 C.2       1 UNL         0.4441 
     15 O          -0.1171   -2.4735    0.9091 O.2       1 UNL        -0.3427 
     16 O           3.0577    0.7071    0.6745 O.2       1 UNL        -0.3427 
     17 C          -3.0794   -0.7964   -0.1586 C.3       1 UNL        -0.1456 
     18 H          -4.1337   -0.5215   -0.1944 H         1 UNL         0.0682 
     19 H          -2.8626   -1.4157   -1.0303 H         1 UNL         0.0682 
     20 H          -2.9086   -1.4037    0.7306 H         1 UNL         0.0682 
     21 HXT        -1.1709    0.0667   -1.8896 H         1 UNL         0.1268 
     22 HXT         0.1152    2.1461   -1.9538 H         1 UNL         0.1242 
@<TRIPOS>BOND
     1    1    5 2    
     2    1   17 1    
     3    1    9 1    
     4    2   13 1    
     5    2    4 2    
     6    2   10 1    
     7    3    6 2    
     8    3    7 1    
     9    3    8 1    
    10    4   14 1    
    11    4   11 1    
    12    5    6 1    
    13    5   21 1    
    14    6   22 1    
    15   12   14 1    
    16   12   13 1    
    17   13   15 2    
    18   14   16 2    
    19   17   20 1    
    20   17   19 1    
    21   17   18 1    
@<TRIPOS>SUBSTRUCTURE
     1 UNL         1 GROUP             0       ****    0 ROOT    
