@<TRIPOS>MOLECULE
*****
 22 21 0 0 0
SMALL
GASTEIGER

@<TRIPOS>ATOM
      1 C          -1.7636    0.7699    0.2683 C.3     1  UNL1       -0.0197
      2 C          -0.1675   -0.7380    1.1357 C.3     2  UNL2        0.0842
      3 C           0.7533    2.4397    0.2956 C.3     1  UNL1       -0.0313
      4 C           1.1138   -0.1249    1.2214 C.3     2  UNL2        0.0842
      5 C          -1.0805    1.2934   -0.9068 C.2     1  UNL1       -0.0845
      6 C           0.0402    2.0307   -0.8870 C.2     1  UNL1       -0.0874
      7 H           1.7910    2.7443    0.2033 H       1  UNL1        0.0310
      8 H           0.2454    2.5838    1.2414 H       1  UNL1        0.0310
      9 H           0.5118    2.2904   -1.8343 H       1  UNL1        0.0569
     10 H          -1.4816    0.9954   -1.8757 H       1  UNL1        0.0572
     11 H          -1.6872    1.3437    1.1913 H       1  UNL1        0.0346
     12 H          -0.8179   -0.9253    1.9752 H       2  UNL2        0.0430
     13 H           1.5485    0.3896    2.0581 H       2  UNL2        0.0430
     14 O           1.1261   -1.5056   -0.5878 O.3     2  UNL2       -0.3928
     15 C          -0.0814   -1.6867    0.0162 C.2     2  UNL2        0.3192
     16 C           1.8935   -0.6020    0.0816 C.2     2  UNL2        0.3192
     17 O          -0.9323   -2.5015   -0.2865 O.2     2  UNL2       -0.2500
     18 O           3.0294   -0.2639   -0.1903 O.2     2  UNL2       -0.2500
     19 C          -3.0576    0.0356    0.0627 C.3     1  UNL1       -0.0584
     20 H          -3.2259   -0.6598    0.8910 H       1  UNL1        0.0236
     21 H          -3.8936    0.7410    0.0377 H       1  UNL1        0.0236
     22 H          -3.0574   -0.5413   -0.8673 H       1  UNL1        0.0236
@<TRIPOS>BOND
     1    10     5    1
     2     9     6    1
     3     5     6    2
     4     5     1    1
     5    22    19    1
     6     6     3    1
     7    14    16    1
     8    14    15    1
     9    18    16    2
    10    17    15    2
    11    16     4    1
    12    15     2    1
    13    19    21    1
    14    19     1    1
    15    19    20    1
    16     1    11    1
    17     3     7    1
    18     3     8    1
    19     4     2    1
    20     4    13    1
    21     2    12    1
