@<TRIPOS>MOLECULE
3a_exo_ts_26_reopt2.out
26   26    1
SMALL
USER_CHARGES


@<TRIPOS>ATOM
      1 C          -1.5168   -0.7224    3.5980 C.2       1 UNL        -0.1289 
      2 C           1.5685   -1.0675    3.4212 C.2       1 UNL         0.1020 
      3 C          -0.9080   -1.0381    1.3438 C.2       1 UNL        -0.1312 
      4 C           1.6679   -1.8393    2.3178 C.2       1 UNL        -0.2549 
      5 C          -1.7277   -1.9981    3.2409 C.2       1 UNL        -0.1467 
      6 C          -1.3715   -2.1900    1.8530 C.2       1 UNL        -0.1496 
      7 C          -0.1868   -0.7508    0.0408 C.3       1 UNL        -0.0667 
      8 H          -0.2414   -1.6362   -0.5959 H         1 UNL         0.0875 
      9 H          -0.7224    0.0377   -0.4893 H         1 UNL         0.0875 
     10 C           1.2977   -0.3472    0.2540 C.3       1 UNL        -0.1910 
     11 H           1.7779   -0.1741   -0.7089 H         1 UNL         0.0908 
     12 H           1.3648    0.5914    0.8013 H         1 UNL         0.0908 
     13 C           2.1214   -1.3991    1.0106 C.2       1 UNL         0.4208 
     14 O           3.0693   -1.9358    0.4469 O.2       1 UNL        -0.4419 
     15 H           1.3892   -2.8795    2.3615 H         1 UNL         0.1516 
     16 H           1.1796   -1.4551    4.3521 H         1 UNL         0.1574 
     17 C          -1.1762    0.0513    2.3521 C.3       1 UNL        -0.0970 
     18 H          -2.0058    0.6865    2.0390 H         1 UNL         0.1026 
     19 H          -0.3268    0.7135    2.4899 H         1 UNL         0.1026 
     20 CL          2.1016    0.6202    3.5214 Cl        1 UNL        -0.1536 
     21 C          -1.6817   -0.0403    4.9380 C.3       1 UNL        -0.1201 
     22 H          -0.7302    0.3711    5.2753 H         1 UNL         0.0693 
     23 H          -2.0334   -0.7456    5.6915 H         1 UNL         0.0693 
     24 H          -2.4079    0.7696    4.8662 H         1 UNL         0.0693 
     25 HXT        -1.3611   -3.1440    1.3450 H         1 UNL         0.1379 
     26 HXT        -2.0563   -2.7828    3.9077 H         1 UNL         0.1423 
@<TRIPOS>BOND
     1    1   17 1    
     2    1   21 1    
     3    1    5 2    
     4    2   20 1    
     5    2    4 2    
     6    2   16 1    
     7    3   17 1    
     8    3    7 1    
     9    3    6 2    
    10    4   13 1    
    11    4   15 1    
    12    5    6 1    
    13    5   26 1    
    14    6   25 1    
    15    7    9 1    
    16    7   10 1    
    17    7    8 1    
    18   10   12 1    
    19   10   11 1    
    20   10   13 1    
    21   13   14 2    
    22   17   18 1    
    23   17   19 1    
    24   21   24 1    
    25   21   22 1    
    26   21   23 1    
@<TRIPOS>SUBSTRUCTURE
     1 UNL         1 GROUP             0       ****    0 ROOT    
