@<TRIPOS>MOLECULE
3g_exo_ts_6_reopt.out
24   24    1
SMALL
USER_CHARGES


@<TRIPOS>ATOM
      1 C          -4.8346    3.7854    0.0365 C.ar      1 UNL        -0.2999 
      2 C          -1.7865    3.9793    0.0384 C.2       1 UNL        -0.1603 
      3 C          -4.3729    3.3500    2.1885 C.ar      1 UNL        -0.1474 
      4 C          -1.7487    3.3478    1.2425 C.2       1 UNL        -0.1241 
      5 C          -4.9631    2.4172    0.2144 C.ar      1 UNL        -0.2041 
      6 C          -4.6895    2.1500    1.5606 C.ar      1 UNL        -0.1941 
      7 C          -3.8414    3.6679    3.5752 C.3       1 UNL        -0.1256 
      8 H          -4.0576    4.7027    3.8491 H         1 UNL         0.0920 
      9 H          -4.3733    3.0742    4.3204 H         1 UNL         0.0920 
     10 C          -2.3142    3.4105    3.7246 C.3       1 UNL        -0.1910 
     11 H          -1.9484    3.8447    4.6553 H         1 UNL         0.0945 
     12 H          -2.1374    2.3406    3.8284 H         1 UNL         0.0945 
     13 C          -1.4469    3.9039    2.5597 C.2       1 UNL         0.4063 
     14 O          -0.5628    4.7310    2.7637 O.2       1 UNL        -0.4230 
     15 H          -1.9814    2.2945    1.2663 H         1 UNL         0.1511 
     16 H          -2.0203    3.4106   -0.8485 H         1 UNL         0.1617 
     17 C          -1.5289    5.3718   -0.2522 C.2       1 UNL         0.4437 
     18 O          -0.9114    5.7109   -1.2583 O.2       1 UNL        -0.3506 
     19 N          -4.5968    4.3433    1.2654 N.pl3     1 UNL         0.0288 
     20 H          -4.4649    5.3309    1.4421 H         1 UNL         0.2365 
     21 H          -4.9629    4.4127   -0.8356 H         1 UNL         0.2110 
     22 BR         -2.3577    6.7474    0.9430 Br        1 UNL        -0.1419 
     23 HXT        -5.2134    1.6881   -0.5458 H         1 UNL         0.1771 
     24 HXT        -4.6699    1.1716    2.0208 H         1 UNL         0.1729 
@<TRIPOS>BOND
     1    1    5 ar   
     2    1   21 1    
     3    1   19 ar   
     4    2   16 1    
     5    2    4 2    
     6    2   17 1    
     7    3    6 ar   
     8    3    7 1    
     9    3   19 ar   
    10    4   15 1    
    11    4   13 1    
    12    5    6 ar   
    13    5   23 1    
    14    6   24 1    
    15    7    8 1    
    16    7   10 1    
    17    7    9 1    
    18   10   13 1    
    19   10   11 1    
    20   10   12 1    
    21   13   14 2    
    22   17   22 1    
    23   17   18 2    
    24   19   20 1    
@<TRIPOS>SUBSTRUCTURE
     1 UNL         1 GROUP             0       ****    0 ROOT    
