@<TRIPOS>MOLECULE
*****
 26 26 0 0 0
SMALL
GASTEIGER

@<TRIPOS>ATOM
      1 C          -1.3702   -1.1403    0.2064 C.3     1  UNL1       -0.0044
      2 C          -0.7558    1.0745    0.4479 C.3     1  UNL1        0.0610
      3 C           0.8224   -1.0488   -0.4901 C.3     1  UNL1       -0.0010
      4 C           0.4828    1.0089   -0.3265 C.3     1  UNL1        0.0459
      5 C          -0.5147   -1.6840    1.2610 C.2     1  UNL1       -0.0806
      6 C           0.7603   -1.6448    0.8547 C.2     1  UNL1       -0.0803
      7 H           1.6214   -1.9327    1.4402 H       1  UNL1        0.0575
      8 C           2.1344   -0.8467   -1.1832 C.3     1  UNL1       -0.0364
      9 H           2.7320   -1.7637   -1.2043 H       1  UNL1        0.0278
     10 H           1.9589   -0.5494   -2.2243 H       1  UNL1        0.0278
     11 C           2.8795    0.2805   -0.4393 C.3     1  UNL1        0.0070
     12 H           3.5219   -0.1491    0.3372 H       1  UNL1        0.0342
     13 H           3.4930    0.8687   -1.1278 H       1  UNL1        0.0342
     14 C           1.8545    1.1796    0.2336 C.2     1  UNL1        0.1386
     15 O           2.1015    1.9406    1.1586 O.2     1  UNL1       -0.2970
     16 H          -0.8674   -2.0171    2.2257 H       1  UNL1        0.0575
     17 H           0.4116    1.3562   -1.3585 H       1  UNL1        0.0399
     18 H          -0.7091    1.1299    1.5312 H       1  UNL1        0.0487
     19 C          -0.5513   -1.3121   -1.0671 C.3     1  UNL1       -0.0335
     20 H          -0.6272   -2.3346   -1.4563 H       1  UNL1        0.0282
     21 H          -0.8476   -0.6170   -1.8576 H       1  UNL1        0.0282
     22 CL         -2.0176    2.0970   -0.1611 Cl      1  UNL1       -0.1195
     23 C          -2.8412   -1.3691    0.2271 C.3     1  UNL1       -0.0553
     24 H          -3.3446   -0.7133   -0.4888 H       1  UNL1        0.0238
     25 H          -3.0749   -2.4056   -0.0352 H       1  UNL1        0.0238
     26 H          -3.2530   -1.1641    1.2206 H       1  UNL1        0.0238
@<TRIPOS>BOND
     1    10     8    1
     2    21    19    1
     3    20    19    1
     4     9     8    1
     5    17     4    1
     6     8     3    1
     7     8    11    1
     8    13    11    1
     9    19     3    1
    10    19     1    1
    11     3     6    1
    12    11    12    1
    13    11    14    1
    14    22     2    1
    15    24    23    1
    16     4     2    1
    17     4    14    1
    18    25    23    1
    19     1    23    1
    20     1     5    1
    21    23    26    1
    22     2    18    1
    23    14    15    2
    24     6     5    2
    25     6     7    1
    26     5    16    1
