@<TRIPOS>MOLECULE
Structure1
56   60    1
SMALL
USER_CHARGES


@<TRIPOS>ATOM
      1 C1         -2.8657   -2.8934   -3.3087 C.ar      1 ****        0.3251 
      2 C2         -1.9447   -3.8888   -3.6633 C.ar      1 ****        0.2961 
      3 C3         -0.6081   -3.5397   -3.8855 C.ar      1 ****       -0.2620 
      4 C4         -0.2247   -2.1905   -3.7322 C.ar      1 ****       -0.1249 
      5 C5         -1.1911   -1.2159   -3.4067 C.ar      1 ****       -0.1049 
      6 C6         -2.5311   -1.5458   -3.1731 C.ar      1 ****       -0.3498 
      7 O7         -4.0741   -3.4862   -3.1458 O.3       1 ****       -0.3096 
      8 N8         -2.5769   -5.0969   -3.7312 N.2       1 ****       -0.4825 
      9 H9          0.1072   -4.2983   -4.1715 H         1 ****        0.2280 
     10 H10        -0.9040   -0.1724   -3.3482 H         1 ****        0.1673 
     11 H11        -3.2837   -0.8116   -2.9262 H         1 ****        0.2196 
     12 C12        -3.8346   -4.7972   -3.4597 C.2       1 ****        0.3288 
     13 C13        -5.0105   -5.7852   -3.3799 C.3       1 ****       -0.0239 
     14 C14        -4.9771   -6.8605   -4.5132 C.3       1 ****       -0.1106 
     15 C15        -5.4002   -6.3927   -5.9413 C.3       1 ****       -0.0502 
     16 C16        -6.8705   -5.9438   -5.8525 C.3       1 ****       -0.1209 
     17 C17        -6.9872   -4.7388   -4.8825 C.3       1 ****       -0.0478 
     18 C18        -6.4107   -5.0791   -3.4628 C.3       1 ****       -0.1121 
     19 H19        -5.6063   -7.7080   -4.2341 H         1 ****        0.0828 
     20 H20        -3.9646   -7.2656   -4.5686 H         1 ****        0.0828 
     21 C21        -5.3078   -7.5947   -6.9106 C.3       1 ****       -0.1691 
     22 C22        -4.5305   -5.2142   -6.4976 C.3       1 ****        0.1293 
     23 H23        -7.2532   -5.6804   -6.8419 H         1 ****        0.0781 
     24 H24        -7.5020   -6.7631   -5.5042 H         1 ****        0.0781 
     25 C25        -8.4682   -4.2923   -4.7545 C.3       1 ****       -0.1598 
     26 H26        -7.1285   -5.7781   -3.0306 H         1 ****        0.0850 
     27 H27        -6.4531   -4.2014   -2.8137 H         1 ****        0.0850 
     28 C28        -4.9152   -6.5215   -2.0195 C.3       1 ****       -0.1763 
     29 H29        -5.6618   -7.3382   -7.9104 H         1 ****        0.0668 
     30 H30        -4.2800   -7.9465   -7.0111 H         1 ****        0.0668 
     31 H31        -5.9063   -8.4398   -6.5672 H         1 ****        0.0668 
     32 H32        -8.8831   -3.9813   -5.7151 H         1 ****        0.0704 
     33 H33        -9.0983   -5.0980   -4.3772 H         1 ****        0.0704 
     34 H34        -8.5786   -3.4483   -4.0707 H         1 ****        0.0704 
     35 C35        -6.1696   -3.5519   -5.4969 C.2       1 ****        0.4952 
     36 O36        -6.4414   -2.3634   -5.3719 O.2       1 ****       -0.5322 
     37 H37        -4.5860   -5.2194   -7.5880 H         1 ****        0.0747 
     38 N38        -5.0596   -3.8693   -6.1852 N.am      1 ****       -0.6037 
     39 H39        -3.4758   -5.3072   -6.2363 H         1 ****        0.0747 
     40 H40        -4.5770   -3.0532   -6.5255 H         1 ****        0.3093 
     41 H41        -3.9640   -7.0473   -1.9200 H         1 ****        0.0738 
     42 H42        -4.9733   -5.8191   -1.1864 H         1 ****        0.0738 
     43 H43        -5.7090   -7.2570   -1.8835 H         1 ****        0.0738 
     44 C44         1.2044   -1.8026   -4.0141 C.2       1 ****        0.4767 
     45 O45         1.8619   -2.4654   -4.8219 O.2       1 ****       -0.4507 
     46 C46         3.1219    1.4965   -2.0369 C.ar      1 ****       -0.1043 
     47 C47         2.0828    0.8275   -1.3957 C.ar      1 ****       -0.1428 
     48 C48         1.4508   -0.2386   -2.0307 C.ar      1 ****       -0.0836 
     49 C49         1.8411   -0.6289   -3.3215 C.ar      1 ****       -0.1905 
     50 C50         2.9116    0.0346   -3.9391 C.ar      1 ****       -0.0836 
     51 C51         3.5427    1.1007   -3.3035 C.ar      1 ****       -0.1428 
     52 H52         3.6151    2.3210   -1.5424 H         1 ****        0.1329 
     53 H53         1.7756    1.1273   -0.4040 H         1 ****        0.1358 
     54 H54         0.6677   -0.7639   -1.5008 H         1 ****        0.1422 
     55 H55         3.2556   -0.2717   -4.9189 H         1 ****        0.1422 
     56 H56         4.3602    1.6130   -3.7904 H         1 ****        0.1358 
@<TRIPOS>BOND
     1    1    2 ar   
     2    1    6 ar   
     3    1    7 1    
     4    2    3 ar   
     5    2    8 1    
     6    3    4 ar   
     7    3    9 1    
     8    4    5 ar   
     9    4   44 1    
    10    5    6 ar   
    11    5   10 1    
    12    6   11 1    
    13    7   12 1    
    14    8   12 2    
    15   12   13 1    
    16   13   14 1    
    17   13   18 1    
    18   13   28 1    
    19   14   15 1    
    20   14   19 1    
    21   14   20 1    
    22   15   16 1    
    23   15   21 1    
    24   15   22 1    
    25   16   17 1    
    26   16   23 1    
    27   16   24 1    
    28   17   18 1    
    29   17   25 1    
    30   17   35 1    
    31   18   26 1    
    32   18   27 1    
    33   21   29 1    
    34   21   30 1    
    35   21   31 1    
    36   22   37 1    
    37   22   38 1    
    38   22   39 1    
    39   25   32 1    
    40   25   33 1    
    41   25   34 1    
    42   28   41 1    
    43   28   42 1    
    44   28   43 1    
    45   35   36 2    
    46   35   38 am   BACKBONE|DICT|INTERRES
    47   38   40 1    
    48   44   45 2    
    49   44   49 1    
    50   46   47 ar   
    51   46   51 ar   
    52   46   52 1    
    53   47   48 ar   
    54   47   53 1    
    55   48   49 ar   
    56   48   54 1    
    57   49   50 ar   
    58   50   51 ar   
    59   50   55 1    
    60   51   56 1    
@<TRIPOS>SUBSTRUCTURE
     1 ****        1 GROUP             0       ****    0 ROOT    
