@<TRIPOS>MOLECULE
Structure1
48   49    1
SMALL
USER_CHARGES


@<TRIPOS>ATOM
      1 C1          2.5298   -0.1694    0.9797 C.ar      1 ****        0.0000 
      2 C2          2.5697    0.5795    2.1614 C.ar      1 ****        0.0000 
      3 C3          1.8810    0.1115    3.2870 C.ar      1 ****        0.0000 
      4 C4          1.1620   -1.0897    3.2416 C.ar      1 ****        0.0000 
      5 C5          1.1346   -1.8247    2.0494 C.ar      1 ****        0.0000 
      6 C6          1.8159   -1.3664    0.9117 C.ar      1 ****        0.0000 
      7 H7          3.0487    0.1872    0.1012 H         1 ****        0.0000 
      8 C8          3.3581    1.8877    2.2210 C.3       1 ****        0.0000 
      9 H9          1.9024    0.6873    4.2035 H         1 ****        0.0000 
     10 C10         0.4197   -1.5991    4.4777 C.3       1 ****        0.0000 
     11 H11         0.5836   -2.7543    2.0193 H         1 ****        0.0000 
     12 N12         1.8567   -2.0487   -0.3143 N.am      1 ****        0.0000 
     13 F13        -0.8465   -1.1893    4.4215 F         1 ****        0.0000 
     14 F14         0.4374   -2.9315    4.5350 F         1 ****        0.0000 
     15 F15         0.9662   -1.1285    5.6005 F         1 ****        0.0000 
     16 F16         3.8268    2.1142    3.4491 F         1 ****        0.0000 
     17 F17         4.3919    1.8664    1.3772 F         1 ****        0.0000 
     18 F18         2.5535    2.8929    1.8802 F         1 ****        0.0000 
     19 H19         2.5060   -1.7070   -1.0210 H         1 ****        0.0000 
     20 C20         1.0694   -3.0325   -0.7689 C.2       1 ****        0.0000 
     21 O21         0.0822   -3.4752   -0.1955 O.2       1 ****        0.0000 
     22 N22         1.3850   -3.4639   -1.9935 N.am      1 ****        0.0000 
     23 H23         0.6153   -3.9642   -2.4075 H         1 ****        0.0000 
     24 C24         4.3904   -5.7200   -2.9658 C.3       1 ****        0.0000 
     25 C25         3.1297   -5.2664   -2.2046 C.3       1 ****        0.0000 
     26 C26         2.7165   -3.8105   -2.5286 C.3       1 ****        0.0000 
     27 C27         3.9114   -2.7992   -2.3812 C.3       1 ****        0.0000 
     28 C28         5.1416   -3.2949   -3.1872 C.3       1 ****        0.0000 
     29 C29         5.5544   -4.7302   -2.8075 C.3       1 ****        0.0000 
     30 H30         4.1524   -5.8312   -4.0254 H         1 ****        0.0000 
     31 H31         4.6944   -6.7107   -2.6230 H         1 ****        0.0000 
     32 H32         3.3094   -5.3530   -1.1312 H         1 ****        0.0000 
     33 H33         2.3098   -5.9515   -2.4284 H         1 ****        0.0000 
     34 H34         2.5057   -3.8278   -3.5990 H         1 ****        0.0000 
     35 N35         3.5604   -1.3770   -2.5693 N.3       1 ****        0.0000 
     36 H36         4.1989   -2.8917   -1.3308 H         1 ****        0.0000 
     37 H37         4.9335   -3.2394   -4.2558 H         1 ****        0.0000 
     38 H38         5.9978   -2.6455   -3.0101 H         1 ****        0.0000 
     39 H39         5.9077   -4.7473   -1.7746 H         1 ****        0.0000 
     40 H40         6.3995   -5.0499   -3.4197 H         1 ****        0.0000 
     41 C41         4.6331   -0.4533   -2.1887 C.3       1 ****        0.0000 
     42 C42         3.0617   -1.0501   -3.9082 C.3       1 ****        0.0000 
     43 H43         4.2655    0.5743   -2.1646 H         1 ****        0.0000 
     44 H44         5.0166   -0.6804   -1.1923 H         1 ****        0.0000 
     45 H45         5.4717   -0.4817   -2.8866 H         1 ****        0.0000 
     46 H46         2.7508   -0.0050   -3.9613 H         1 ****        0.0000 
     47 H47         3.8181   -1.2106   -4.6782 H         1 ****        0.0000 
     48 H48         2.1855   -1.6466   -4.1645 H         1 ****        0.0000 
@<TRIPOS>BOND
     1    1    2 ar   
     2    1    6 ar   
     3    1    7 1    
     4    2    3 ar   
     5    2    8 1    
     6    3    4 ar   
     7    3    9 1    
     8    4    5 ar   
     9    4   10 1    
    10    5    6 ar   
    11    5   11 1    
    12    6   12 1    
    13    8   16 1    
    14    8   17 1    
    15    8   18 1    
    16   10   13 1    
    17   10   14 1    
    18   10   15 1    
    19   12   19 1    
    20   12   20 am   BACKBONE|DICT|INTERRES
    21   20   21 2    
    22   20   22 am   BACKBONE|DICT|INTERRES
    23   22   23 1    
    24   22   26 1    
    25   24   25 1    
    26   24   29 1    
    27   24   30 1    
    28   24   31 1    
    29   25   26 1    
    30   25   32 1    
    31   25   33 1    
    32   26   27 1    
    33   26   34 1    
    34   27   28 1    
    35   27   35 1    
    36   27   36 1    
    37   28   29 1    
    38   28   37 1    
    39   28   38 1    
    40   29   39 1    
    41   29   40 1    
    42   35   41 1    
    43   35   42 1    
    44   41   43 1    
    45   41   44 1    
    46   41   45 1    
    47   42   46 1    
    48   42   47 1    
    49   42   48 1    
@<TRIPOS>SUBSTRUCTURE
     1 ****        1 GROUP             0       ****    0 ROOT    
