@<TRIPOS>MOLECULE
Structure193
35   37    1
SMALL
USER_CHARGES


@<TRIPOS>ATOM
      1 C1          1.1181    0.1384    0.4005 C.ar      1 ****       -0.0390 
      2 C2          0.9109    0.1994    1.7827 C.ar      1 ****       -0.1066 
      3 C3         -0.3568    0.4680    2.2941 C.ar      1 ****       -0.1255 
      4 C4         -1.4239    0.6706    1.4232 C.ar      1 ****        0.0715 
      5 C5         -1.2344    0.6012    0.0459 C.ar      1 ****       -0.1255 
      6 C6          0.0334    0.3307   -0.4626 C.ar      1 ****       -0.1066 
      7 H7          1.7389    0.0504    2.4609 H         1 ****        0.1455 
      8 H8         -0.5149    0.5215    3.3612 H         1 ****        0.1472 
      9 Cl9        -2.9927    1.0066    2.0557 Cl        1 ****       -0.1530 
     10 H10        -2.0693    0.7518   -0.6230 H         1 ****        0.1472 
     11 H11         0.1741    0.2595   -1.5323 H         1 ****        0.1455 
     12 C12         5.0155   -0.7987   -1.1535 C.ar      1 ****       -0.1190 
     13 C13         4.3624   -1.6710   -0.2890 C.ar      1 ****       -0.1247 
     14 C14         3.1049   -1.3399    0.2094 C.ar      1 ****       -0.1102 
     15 C15         2.4784   -0.1377   -0.1448 C.ar      1 ****       -0.0381 
     16 C16         3.1489    0.7549   -1.0124 C.ar      1 ****        0.0386 
     17 C17         4.4154    0.4060   -1.5129 C.ar      1 ****       -0.1141 
     18 H18         5.9899   -1.0509   -1.5465 H         1 ****        0.1374 
     19 H19         4.8269   -2.6061   -0.0103 H         1 ****        0.1363 
     20 H20         2.6020   -2.0342    0.8677 H         1 ****        0.1393 
     21 N21         2.5126    1.9796   -1.3081 N.am      1 ****       -0.3723 
     22 H22         4.9614    1.0541   -2.1799 H         1 ****        0.1454 
     23 H23         1.6152    2.0874   -0.8646 H         1 ****        0.3009 
     24 C24         2.9090    3.0210   -2.0638 C.2       1 ****        0.4779 
     25 O25         3.9746    3.1095   -2.6680 O.2       1 ****       -0.4934 
     26 C26         0.2204    6.3260   -2.1383 C.ar      1 ****        0.0131 
     27 C27         1.5094    6.5162   -1.6435 C.ar      1 ****       -0.1854 
     28 C28         2.3807    5.4268   -1.6215 C.ar      1 ****       -0.0495 
     29 C29         1.9476    4.1740   -2.0787 C.ar      1 ****       -0.1177 
     30 C30         0.6381    4.0725   -2.5903 C.ar      1 ****        0.2081 
     31 N31        -0.2139    5.1308   -2.6071 N.ar      1 ****       -0.2507 
     32 H32        -0.4890    7.1414   -2.1769 H         1 ****        0.1687 
     33 H33         1.8309    7.4857   -1.2905 H         1 ****        0.1533 
     34 H34         3.3911    5.5556   -1.2543 H         1 ****        0.1529 
     35 Cl35        0.0155    2.5963   -3.2495 Cl        1 ****       -0.0976 
@<TRIPOS>BOND
     1    1    2 ar   
     2    1    6 ar   
     3    1   15 1    
     4    2    3 ar   
     5    2    7 1    
     6    3    4 ar   
     7    3    8 1    
     8    4    5 ar   
     9    4    9 1    
    10    5    6 ar   
    11    5   10 1    
    12    6   11 1    
    13   12   13 ar   
    14   12   17 ar   
    15   12   18 1    
    16   13   14 ar   
    17   13   19 1    
    18   14   15 ar   
    19   14   20 1    
    20   15   16 ar   
    21   16   17 ar   
    22   16   21 1    
    23   17   22 1    
    24   21   23 1    
    25   21   24 am   BACKBONE|DICT|INTERRES
    26   24   25 2    
    27   24   29 1    
    28   26   27 ar   
    29   26   31 ar   
    30   26   32 1    
    31   27   28 ar   
    32   27   33 1    
    33   28   29 ar   
    34   28   34 1    
    35   29   30 ar   
    36   30   31 ar   
    37   30   35 1    
@<TRIPOS>SUBSTRUCTURE
     1 ****        1 GROUP             0       ****    0 ROOT    
