@<TRIPOS>MOLECULE
Molecule Name
44   47    1
SMALL
USER_CHARGES


@<TRIPOS>ATOM
      1 O1          1.6700    3.2679   -3.9143 O.3       1 ****       -0.6203 
      2 C2          1.0501    2.4125   -2.9792 C.3       1 ****        0.2273 
      3 C3         -0.4771    2.7302   -3.0145 C.3       1 ****        0.0441 
      4 H4          1.4452    2.7104   -2.0115 H         1 ****        0.0730 
      5 C5          1.3505    0.9424   -3.3026 C.ar      1 ****       -0.1809 
      6 H6         -0.8224    2.5271   -4.0321 H         1 ****        0.1262 
      7 C7         -0.8982    4.1844   -2.6280 C.3       1 ****       -0.1406 
      8 N8         -1.2784    1.7276   -2.1219 N.4       1 ****       -0.4391 
      9 C9          1.8718    0.0286   -2.3206 C.ar      1 ****        0.0673 
     10 C10         1.0919    0.4614   -4.5927 C.ar      1 ****       -0.1427 
     11 C11        -2.0762    4.2086   -1.6144 C.3       1 ****       -0.0852 
     12 H12        -1.1342    4.7554   -3.5276 H         1 ****        0.1100 
     13 H13        -0.0424    4.7181   -2.2093 H         1 ****        0.1100 
     14 C14        -1.0982    2.0441   -0.6076 C.3       1 ****        0.0407 
     15 C15        -2.7918    1.8718   -2.4624 C.3       1 ****        0.0410 
     16 C16         2.2268    0.3779   -0.9831 C.ar      1 ****       -0.2235 
     17 C17         2.0545   -1.3360   -2.7243 C.ar      1 ****        0.0839 
     18 C18         1.3153   -0.8780   -4.8864 C.ar      1 ****       -0.0321 
     19 H19         0.7288    1.1230   -5.3685 H         1 ****        0.1510 
     20 C20        -1.5836    3.4940   -0.3281 C.3       1 ****       -0.1559 
     21 H21        -2.3979    5.2329   -1.4011 H         1 ****        0.1372 
     22 C22        -3.2433    3.3491   -2.1973 C.3       1 ****       -0.1031 
     23 H23        -0.0459    1.9095   -0.3575 H         1 ****        0.1196 
     24 H24        -1.6693    1.3004   -0.0452 H         1 ****        0.1196 
     25 H25        -2.9244    1.5589   -3.5020 H         1 ****        0.1201 
     26 H26        -3.3309    1.1555   -1.8359 H         1 ****        0.1201 
     27 C27         2.7184   -0.5828   -0.1012 C.ar      1 ****       -0.0898 
     28 H28         2.1572    1.3900   -0.6244 H         1 ****        0.1188 
     29 C29         2.5506   -2.2870   -1.8014 C.ar      1 ****       -0.1383 
     30 N30         1.7727   -1.7710   -3.9820 N.ar      1 ****       -0.1538 
     31 H31         1.1308   -1.2673   -5.8791 H         1 ****        0.1783 
     32 H32        -0.7762    4.0686    0.1318 H         1 ****        0.1095 
     33 H33        -2.3778    3.4792    0.4220 H         1 ****        0.1095 
     34 H34        -4.0373    3.3149   -1.4458 H         1 ****        0.1066 
     35 C35        -3.8943    3.9924   -3.4413 C.3       1 ****       -0.1779 
     36 C36         2.8744   -1.9032   -0.5039 C.ar      1 ****       -0.1172 
     37 H37         2.6863   -3.3119   -2.1197 H         1 ****        0.1685 
     38 H38        -4.7840    3.4425   -3.7535 H         1 ****        0.0844 
     39 H39        -4.2128    5.0170   -3.2405 H         1 ****        0.0844 
     40 H40        -3.2201    4.0227   -4.2980 H         1 ****        0.0844 
     41 H41         3.2647   -2.6335    0.1929 H         1 ****        0.1549 
     42 H42         2.6006    3.0243   -3.9752 H         1 ****        0.4438 
     43 H43        -0.9520    0.7861   -2.3261 H         1 ****        0.3202 
     44 H44         2.9974   -0.3025    0.9061 H         1 ****        0.1462 
@<TRIPOS>BOND
     1    1    2 1    
     2    1   42 1    
     3    2    3 1    
     4    2    4 1    
     5    2    5 1    
     6    3    6 1    
     7    3    7 1    
     8    3    8 1    
     9    5    9 ar   
    10    5   10 ar   
    11    7   11 1    
    12    7   12 1    
    13    7   13 1    
    14    8   14 1    
    15    8   15 1    
    16    8   43 1    
    17    9   16 ar   
    18    9   17 ar   
    19   10   18 ar   
    20   10   19 1    
    21   11   20 1    
    22   11   21 1    
    23   11   22 1    
    24   14   20 1    
    25   14   23 1    
    26   14   24 1    
    27   15   22 1    
    28   15   25 1    
    29   15   26 1    
    30   16   27 ar   
    31   16   28 1    
    32   17   29 ar   
    33   17   30 ar   
    34   18   30 ar   
    35   18   31 1    
    36   20   32 1    
    37   20   33 1    
    38   22   34 1    
    39   22   35 1    
    40   27   36 ar   
    41   27   44 1    
    42   29   36 ar   
    43   29   37 1    
    44   35   38 1    
    45   35   39 1    
    46   35   40 1    
    47   36   41 1    
@<TRIPOS>SUBSTRUCTURE
     1 ****        1 GROUP             0       ****    0 ROOT    
