@<TRIPOS>MOLECULE
Structure1516
60   65    1
SMALL
USER_CHARGES


@<TRIPOS>ATOM
      1 C1          7.1356    5.9363    3.9582 C.ar      1 ****       -0.1331 
      2 C2          7.6156    6.1606    5.2465 C.ar      1 ****       -0.0753 
      3 C3          6.9864    5.6129    6.3670 C.ar      1 ****        0.0207 
      4 C4          5.8532    4.8160    6.1804 C.ar      1 ****       -0.0949 
      5 H5          7.6502    6.3610    3.1080 H         1 ****        0.1404 
      6 H6          8.5037    6.7616    5.3833 H         1 ****        0.1480 
      7 H7          5.3677    4.3771    7.0400 H         1 ****        0.1423 
      8 C8          5.3301    4.5715    4.8869 C.ar      1 ****       -0.0543 
      9 C9          5.9813    5.1446    3.7566 C.ar      1 ****       -0.0189 
     10 C10         5.4577    4.9017    2.4660 C.ar      1 ****       -0.1553 
     11 C11         4.3007    4.1393    2.2984 C.ar      1 ****        0.1086 
     12 C12         3.6589    3.5720    3.4063 C.ar      1 ****       -0.0864 
     13 C13         4.1817    3.7704    4.6859 C.ar      1 ****       -0.0784 
     14 H14         5.9650    5.3088    1.6045 H         1 ****        0.1447 
     15 O15         3.7585    3.9615    1.0462 O.3       1 ****       -0.3599 
     16 H16         3.7008    3.3171    5.5415 H         1 ****        0.1459 
     17 C17         0.2543    0.9722    3.0474 C.ar      1 ****       -0.1602 
     18 C18         1.5573    0.5106    2.9677 C.ar      1 ****       -0.1168 
     19 C19         2.6153    1.3959    3.0727 C.ar      1 ****       -0.0639 
     20 C20         2.4188    2.7666    3.2501 C.ar      1 ****       -0.1124 
     21 H21        -0.5646    0.2689    2.9765 H         1 ****        0.1516 
     22 H22         1.7550   -0.5443    2.8315 H         1 ****        0.1557 
     23 H23         3.6236    1.0058    3.0178 H         1 ****        0.1574 
     24 C24         1.0672    3.3017    3.2948 C.ar      1 ****        0.0558 
     25 C25        -0.0127    2.3522    3.2137 C.ar      1 ****       -0.0074 
     26 C26        -1.3552    2.7853    3.2993 C.ar      1 ****       -0.0141 
     27 C27        -1.6562    4.1270    3.4598 C.ar      1 ****       -0.1771 
     28 C28        -0.6430    5.0682    3.5159 C.ar      1 ****       -0.0819 
     29 C29         0.7100    4.7077    3.4215 C.ar      1 ****       -0.1513 
     30 H30        -2.1528    2.0567    3.2408 H         1 ****        0.1576 
     31 H31        -2.6901    4.4408    3.5241 H         1 ****        0.1596 
     32 H32        -0.9393    6.1064    3.6115 H         1 ****        0.1389 
     33 C33         1.6669    5.8037    3.4179 C.2       1 ****        0.7880 
     34 N34         1.9411    6.3467    4.5821 N.pl3     1 ****       -0.8401 
     35 H35         2.7402    6.9439    4.7094 H         1 ****        0.4350 
     36 N36         2.1982    6.2594    2.2885 N.pl3     1 ****       -0.4839 
     37 H37         1.4968    5.9234    5.3811 H         1 ****        0.4350 
     38 H38         2.8884    6.9768    2.4181 H         1 ****        0.4251 
     39 C39         2.0262    5.7251    0.9172 C.3       1 ****       -0.1003 
     40 C40         1.4460    6.8174    0.0043 C.3       1 ****       -0.2026 
     41 C41         3.3418    5.1326    0.3420 C.3       1 ****        0.1149 
     42 H42         1.3048    4.9020    0.9431 H         1 ****        0.1109 
     43 H43         2.1202    7.6686   -0.1035 H         1 ****        0.0913 
     44 H44         1.2527    6.4311   -0.9985 H         1 ****        0.0913 
     45 H45         0.4940    7.1941    0.3823 H         1 ****        0.0913 
     46 H46         4.1335    5.8817    0.2862 H         1 ****        0.0792 
     47 H47         3.1720    4.8171   -0.6892 H         1 ****        0.0792 
     48 C48         8.5221    6.3377   10.3351 C.ar      1 ****       -0.0346 
     49 C49         7.1877    6.6018   10.0432 C.ar      1 ****       -0.2559 
     50 C50         6.6898    6.3701    8.7632 C.ar      1 ****        0.2594 
     51 C51         7.5181    5.8670    7.7422 C.ar      1 ****       -0.1233 
     52 C52         8.8650    5.6086    8.0600 C.ar      1 ****        0.2594 
     53 C53         9.3587    5.8411    9.3410 C.ar      1 ****       -0.2559 
     54 H54         8.9081    6.5175   11.3289 H         1 ****        0.1446 
     55 H55         6.5493    6.9890   10.8233 H         1 ****        0.1412 
     56 O56         5.3705    6.6667    8.5445 O.3       1 ****       -0.5507 
     57 O57         9.7374    5.1090    7.1321 O.3       1 ****       -0.5507 
     58 H58        10.3931    5.6385    9.5768 H         1 ****        0.1412 
     59 H59         4.9784    7.0415    9.3350 H         1 ****        0.4124 
     60 H60        10.5956    4.9140    7.5120 H         1 ****        0.4124 
@<TRIPOS>BOND
     1    1    2 ar   
     2    1    5 1    
     3    1    9 ar   
     4    2    3 ar   
     5    2    6 1    
     6    3    4 ar   
     7    3   51 1    
     8    4    7 1    
     9    4    8 ar   
    10    8    9 ar   
    11    8   13 ar   
    12    9   10 ar   
    13   10   11 ar   
    14   10   14 1    
    15   11   12 ar   
    16   11   15 1    
    17   12   13 ar   
    18   12   20 1    
    19   13   16 1    
    20   15   41 1    
    21   17   18 ar   
    22   17   21 1    
    23   17   25 ar   
    24   18   19 ar   
    25   18   22 1    
    26   19   20 ar   
    27   19   23 1    
    28   20   24 ar   
    29   24   25 ar   
    30   24   29 ar   
    31   25   26 ar   
    32   26   27 ar   
    33   26   30 1    
    34   27   28 ar   
    35   27   31 1    
    36   28   29 ar   
    37   28   32 1    
    38   29   33 1    
    39   33   34 2    
    40   33   36 1    
    41   34   35 1    
    42   34   37 1    
    43   36   38 1    
    44   36   39 1    
    45   39   40 1    
    46   39   41 1    
    47   39   42 1    
    48   40   43 1    
    49   40   44 1    
    50   40   45 1    
    51   41   46 1    
    52   41   47 1    
    53   48   49 ar   
    54   48   53 ar   
    55   48   54 1    
    56   49   50 ar   
    57   49   55 1    
    58   50   51 ar   
    59   50   56 1    
    60   51   52 ar   
    61   52   53 ar   
    62   52   57 1    
    63   53   58 1    
    64   56   59 1    
    65   57   60 1    
@<TRIPOS>SUBSTRUCTURE
     1 ****        1 GROUP             0       ****    0 ROOT    
