@<TRIPOS>MOLECULE
Structure506
28   28    1
SMALL
USER_CHARGES


@<TRIPOS>ATOM
      1 C1          1.3840   -0.8504   -0.0986 C.ar      1 ****       -0.1150 
      2 C2          1.1678    0.3198   -0.8251 C.ar      1 ****       -0.1331 
      3 C3         -0.0943    0.9106   -0.8221 C.ar      1 ****       -0.0995 
      4 C4         -1.1325    0.3271   -0.0927 C.ar      1 ****        0.0637 
      5 C5         -0.9120   -0.8444    0.6348 C.ar      1 ****       -0.0995 
      6 C6          0.3502   -1.4350    0.6315 C.ar      1 ****       -0.1331 
      7 H7          2.3634   -1.3078   -0.1001 H         1 ****        0.1337 
      8 H8          1.9742    0.7686   -1.3870 H         1 ****        0.1361 
      9 H9         -0.2631    1.8194   -1.3828 H         1 ****        0.1406 
     10 C10        -2.4508    0.9437   -0.0900 C.1       1 ****       -0.0983 
     11 H11        -1.7144   -1.2948    1.2024 H         1 ****        0.1406 
     12 H12         0.5255   -2.3407    1.1940 H         1 ****        0.1361 
     13 C13        -3.5526    1.4716   -0.0808 C.1       1 ****       -0.2282 
     14 C14        -4.9557    2.1748   -0.1147 C.2       1 ****        0.5420 
     15 O15        -5.4591    2.6927    0.8806 O.2       1 ****       -0.4364 
     16 C16        -5.6933    2.1605   -1.4598 C.3       1 ****       -0.1719 
     17 H17        -4.9847    2.5638   -2.1843 H         1 ****        0.1136 
     18 H18        -5.8657    1.1361   -1.7856 H         1 ****        0.1136 
     19 C19        -7.0064    2.9996   -1.5365 C.3       1 ****       -0.2201 
     20 H20        -7.6443    2.6566   -2.3491 H         1 ****        0.1125 
     21 H21        -7.5919    2.8151   -0.6348 H         1 ****        0.1125 
     22 C22        -6.8186    4.5166   -1.6129 C.2       1 ****        0.5091 
     23 O23        -5.7420    5.0240   -1.9271 O.2       1 ****       -0.4580 
     24 O24        -7.9438    5.1823   -1.3083 O.3       1 ****       -0.3041 
     25 C25        -7.9461    6.6029   -1.3020 C.3       1 ****        0.0960 
     26 H26        -8.9353    6.9730   -1.0326 H         1 ****        0.0490 
     27 H27        -7.6898    7.0014   -2.2851 H         1 ****        0.0490 
     28 H28        -7.2292    6.9925   -0.5769 H         1 ****        0.0490 
@<TRIPOS>BOND
     1    1    2 ar   
     2    1    6 ar   
     3    1    7 1    
     4    2    3 ar   
     5    2    8 1    
     6    3    4 ar   
     7    3    9 1    
     8    4    5 ar   
     9    4   10 1    
    10    5    6 ar   
    11    5   11 1    
    12    6   12 1    
    13   10   13 3    
    14   13   14 1    
    15   14   15 2    
    16   14   16 1    
    17   16   17 1    
    18   16   18 1    
    19   16   19 1    
    20   19   20 1    
    21   19   21 1    
    22   19   22 1    
    23   22   23 2    
    24   22   24 1    
    25   24   25 1    
    26   25   26 1    
    27   25   27 1    
    28   25   28 1    
@<TRIPOS>SUBSTRUCTURE
     1 ****        1 GROUP             0       ****    0 ROOT    
