@<TRIPOS>MOLECULE
Structure1280
37   39    1
SMALL
USER_CHARGES


@<TRIPOS>ATOM
      1 N1         -5.4456    5.1771    3.2330 N.am      1 ****       -0.5630 
      2 C2         -5.2888    2.9971    4.2862 C.3       1 ****        0.0994 
      3 N3         -6.2921    2.4746    3.3214 N.am      1 ****       -0.5717 
      4 C4         -6.8318    4.7958    2.8415 C.3       1 ****        0.1056 
      5 H5         -5.8518    3.3195    5.1646 H         1 ****        0.1197 
      6 C6         -4.2591    1.9281    4.7486 C.3       1 ****       -0.1366 
      7 H7         -7.4487    4.9428    3.7299 H         1 ****        0.1128 
      8 C8         -7.4172    5.6577    1.6912 C.3       1 ****       -0.0932 
      9 O9         -3.3825    4.5644    3.8417 O.2       1 ****       -0.5066 
     10 C10        -4.5835    4.3141    3.7963 C.2       1 ****        0.5079 
     11 O11        -7.6372    2.8010    1.5671 O.2       1 ****       -0.5109 
     12 C12        -6.9938    3.2720    2.4973 C.2       1 ****        0.5068 
     13 H13        -5.0436    6.0305    2.8764 H         1 ****        0.3170 
     14 H14        -6.3038    1.4946    3.0831 H         1 ****        0.3154 
     15 H15        -8.4760    5.4332    1.5442 H         1 ****        0.0897 
     16 H16        -6.9467    5.3891    0.7426 H         1 ****        0.0897 
     17 C17        -6.9738    9.8904    2.3264 C.ar      1 ****       -0.1234 
     18 C18        -6.0781    9.2212    1.4947 C.ar      1 ****       -0.1255 
     19 C19        -6.2235    7.8524    1.2844 C.ar      1 ****       -0.1219 
     20 C20        -7.2635    7.1581    1.9087 C.ar      1 ****       -0.1002 
     21 C21        -8.1600    7.8347    2.7394 C.ar      1 ****       -0.1219 
     22 C22        -8.0144    9.2037    2.9490 C.ar      1 ****       -0.1255 
     23 H23        -6.8616   10.9530    2.4882 H         1 ****        0.1338 
     24 H24        -5.2760    9.7622    1.0132 H         1 ****        0.1348 
     25 H25        -5.5290    7.3366    0.6363 H         1 ****        0.1322 
     26 H26        -8.9683    7.3046    3.2223 H         1 ****        0.1322 
     27 H27        -8.7059    9.7315    3.5901 H         1 ****        0.1348 
     28 H28        -4.7874    1.1738    5.3327 H         1 ****        0.0984 
     29 H29        -3.5505    2.3705    5.4522 H         1 ****        0.0984 
     30 C30        -3.5079    1.2425    3.6213 C.ar      1 ****       -0.1903 
     31 C31        -3.5005   -0.0560    3.1231 C.ar      1 ****       -0.1633 
     32 N32        -2.6745   -0.2132    2.1018 N.2       1 ****       -0.1126 
     33 C33        -2.1412    0.9693    1.9259 C.ar      1 ****       -0.1926 
     34 N34        -2.6072    1.8935    2.8221 N.pl3     1 ****       -0.0220 
     35 H35        -4.0867   -0.8841    3.4947 H         1 ****        0.1858 
     36 H36        -1.4156    1.2466    1.1754 H         1 ****        0.2079 
     37 H37        -2.3618    2.8764    2.8888 H         1 ****        0.2592 
@<TRIPOS>BOND
     1    1    4 1    
     2    1   10 am   BACKBONE|DICT|INTERRES
     3    1   13 1    
     4    2    3 1    
     5    2    5 1    
     6    2    6 1    
     7    2   10 1    
     8    3   12 am   BACKBONE|DICT|INTERRES
     9    3   14 1    
    10    4    7 1    
    11    4    8 1    
    12    4   12 1    
    13    6   28 1    
    14    6   29 1    
    15    6   30 1    
    16    8   15 1    
    17    8   16 1    
    18    8   20 1    
    19    9   10 2    
    20   11   12 2    
    21   17   18 ar   
    22   17   22 ar   
    23   17   23 1    
    24   18   19 ar   
    25   18   24 1    
    26   19   20 ar   
    27   19   25 1    
    28   20   21 ar   
    29   21   22 ar   
    30   21   26 1    
    31   22   27 1    
    32   30   31 ar   
    33   30   34 ar   
    34   31   32 ar   
    35   31   35 1    
    36   32   33 ar   
    37   33   34 ar   
    38   33   36 1    
    39   34   37 1    
@<TRIPOS>SUBSTRUCTURE
     1 ****        1 GROUP             0       ****    0 ROOT    
