@<TRIPOS>MOLECULE
Structure2
53   57    1
SMALL
USER_CHARGES


@<TRIPOS>ATOM
      1 C1          0.5699    1.4332    0.3081 C.3       1 ****       -0.0144 
      2 C2         -0.2284    0.0941    0.2693 C.3       1 ****        0.0898 
      3 C3         -1.5963    0.1888    0.9829 C.3       1 ****       -0.1561 
      4 C4         -1.4431    0.7072    2.4252 C.3       1 ****       -0.1336 
      5 C5         -0.7006    2.0568    2.4573 C.3       1 ****       -0.1301 
      6 C6          0.6695    1.9897    1.7490 C.3       1 ****       -0.1489 
      7 H7          0.0726    2.1999   -0.2851 H         1 ****        0.0986 
      8 N8          1.9434    1.2542   -0.2018 N.pl3     1 ****       -0.3028 
      9 H9          0.3353   -0.6613    0.8225 H         1 ****        0.0886 
     10 N10        -0.3998   -0.4644   -1.0802 N.pl3     1 ****       -0.6661 
     11 H11        -2.0833   -0.7878    0.9949 H         1 ****        0.0905 
     12 H12        -2.2727    0.8503    0.4405 H         1 ****        0.0905 
     13 H13        -2.4259    0.8116    2.8898 H         1 ****        0.0850 
     14 H14        -0.9041   -0.0261    3.0288 H         1 ****        0.0850 
     15 H15        -1.3200    2.8202    1.9815 H         1 ****        0.0839 
     16 H16        -0.5707    2.3836    3.4912 H         1 ****        0.0839 
     17 H17         1.3379    1.3696    2.3503 H         1 ****        0.0794 
     18 H18         1.1078    2.9897    1.7347 H         1 ****        0.0794 
     19 H19         2.6213    0.8766    0.4424 H         1 ****        0.2749 
     20 H20        -0.3877   -1.4724   -1.1287 H         1 ****        0.3192 
     21 N21         1.4797    1.8420   -2.4840 N.pl3     1 ****       -0.3792 
     22 C22         2.3462    1.4327   -1.5467 C.ar      1 ****        0.3524 
     23 C23         3.6699    1.1982   -1.9079 C.ar      1 ****       -0.3109 
     24 C24         4.0899    1.3888   -3.2279 C.ar      1 ****       -0.0054 
     25 H26         5.1174    1.2101   -3.5196 H         1 ****        0.1969 
     26 N27        -1.5412    1.4145   -2.0078 N.ar      1 ****       -0.3968 
     27 C28        -1.1707    0.1135   -2.0974 C.ar      1 ****        0.3922 
     28 C29        -1.4969   -0.6856   -3.1881 C.ar      1 ****       -0.2277 
     29 C30        -2.2667   -0.1572   -4.2242 C.ar      1 ****       -0.0907 
     30 H32        -2.5438   -0.7615   -5.0774 H         1 ****        0.1457 
     31 C33        -2.6993    1.1882   -4.1439 C.ar      1 ****        0.0172 
     32 C34        -2.3134    1.9442   -2.9951 C.ar      1 ****        0.1956 
     33 C35        -2.7232    3.2923   -2.8840 C.ar      1 ****       -0.1839 
     34 C36        -3.4985    3.8727   -3.8871 C.ar      1 ****       -0.0945 
     35 C37        -3.8743    3.1361   -5.0076 C.ar      1 ****       -0.1317 
     36 C38        -3.4853    1.8047   -5.1480 C.ar      1 ****       -0.1586 
     37 H39        -2.4403    3.8606   -2.0097 H         1 ****        0.1504 
     38 H40        -3.8209    4.9015   -3.7937 H         1 ****        0.1421 
     39 H41        -4.4836    3.6019   -5.7710 H         1 ****        0.1416 
     40 H42        -3.7879    1.2359   -6.0165 H         1 ****        0.1385 
     41 C43         3.1544    1.8268   -4.2010 C.ar      1 ****        0.0583 
     42 C44         1.8030    2.0582   -3.8009 C.ar      1 ****        0.3442 
     43 C45         0.8353    2.4945   -4.7280 C.ar      1 ****       -0.3614 
     44 C46         1.2099    2.6983   -6.0564 C.ar      1 ****       -0.0022 
     45 C47         2.5247    2.4756   -6.4656 C.ar      1 ****       -0.1385 
     46 C48         3.4986    2.0451   -5.5606 C.ar      1 ****       -0.2093 
     47 H49        -0.1807    2.6744   -4.4117 H         1 ****        0.2103 
     48 H50         0.4782    3.0349   -6.7818 H         1 ****        0.1690 
     49 H51         2.7883    2.6429   -7.5034 H         1 ****        0.1734 
     50 H52         4.5146    1.8784   -5.8954 H         1 ****        0.1929 
     51 H29        -1.1706   -1.7140   -3.2321 H         1 ****        0.1359 
     52 H23         4.3822    0.8698   -1.1638 H         1 ****        0.2036 
     53 HN21        0.5096    1.9161   -2.2048 H         1 ****        0.3339 
@<TRIPOS>BOND
     1    1    2 1    
     2    1    6 1    
     3    1    7 1    
     4    1    8 1    
     5    2    3 1    
     6    2    9 1    
     7    2   10 1    
     8    3    4 1    
     9    3   11 1    
    10    3   12 1    
    11    4    5 1    
    12    4   13 1    
    13    4   14 1    
    14    5    6 1    
    15    5   15 1    
    16    5   16 1    
    17    6   17 1    
    18    6   18 1    
    19    8   19 1    
    20    8   22 1    
    21   10   20 1    
    22   10   27 1    
    23   21   22 ar   
    24   21   42 ar   
    25   21   53 1    
    26   22   23 ar   
    27   23   24 ar   
    28   23   52 1    
    29   24   25 1    
    30   24   41 ar   
    31   26   27 ar   
    32   26   32 ar   
    33   27   28 ar   
    34   28   29 ar   
    35   28   51 1    
    36   29   30 1    
    37   29   31 ar   
    38   31   32 ar   
    39   31   36 ar   
    40   32   33 ar   
    41   33   34 ar   
    42   33   37 1    
    43   34   35 ar   
    44   34   38 1    
    45   35   36 ar   
    46   35   39 1    
    47   36   40 1    
    48   41   42 ar   
    49   41   46 ar   
    50   42   43 ar   
    51   43   44 ar   
    52   43   47 1    
    53   44   45 ar   
    54   44   48 1    
    55   45   46 ar   
    56   45   49 1    
    57   46   50 1    
@<TRIPOS>SUBSTRUCTURE
     1 ****        1 GROUP             0       ****    0 ROOT    
