@<TRIPOS>MOLECULE
Structure3
44   45    1
SMALL
USER_CHARGES


@<TRIPOS>ATOM
      1 C1          1.0585   -0.5200    1.6277 C.ar      1 ****        0.0000 
      2 C2          1.7401    0.1951    2.6085 C.ar      1 ****        0.0000 
      3 C3          2.9851    0.7471    2.3215 C.ar      1 ****        0.0000 
      4 C4          3.5511    0.5947    1.0593 C.ar      1 ****        0.0000 
      5 C5          2.8673   -0.1164    0.0774 C.ar      1 ****        0.0000 
      6 C6          1.6175   -0.6890    0.3507 C.ar      1 ****        0.0000 
      7 H7          0.0913   -0.9323    1.8769 H         1 ****        0.0000 
      8 H8          1.3016    0.3232    3.5880 H         1 ****        0.0000 
      9 H9          3.5144    1.3013    3.0836 H         1 ****        0.0000 
     10 H10         4.5179    1.0266    0.8423 H         1 ****        0.0000 
     11 H11         3.3272   -0.2209   -0.8949 H         1 ****        0.0000 
     12 C12         0.9077   -1.4863   -0.7634 C.3       1 ****        0.0000 
     13 N13        -0.4101   -2.0319   -0.3350 N.pl3     1 ****        0.0000 
     14 H14         0.7126   -0.7553   -1.5510 H         1 ****        0.0000 
     15 C15         1.7942   -2.6284   -1.3508 C.3       1 ****        0.0000 
     16 H16         2.6506   -2.1680   -1.8464 H         1 ****        0.0000 
     17 N17         2.3140   -3.4972   -0.2597 N.pl3     1 ****        0.0000 
     18 C18        -0.2390   -4.8156   -4.4776 C.ar      1 ****        0.0000 
     19 C19        -0.1273   -5.3899   -3.2142 C.ar      1 ****        0.0000 
     20 C20         0.5309   -4.7019   -2.1990 C.ar      1 ****        0.0000 
     21 C21         1.0842   -3.4364   -2.4467 C.ar      1 ****        0.0000 
     22 C22         0.9632   -2.8714   -3.7210 C.ar      1 ****        0.0000 
     23 C23         0.3033   -3.5594   -4.7354 C.ar      1 ****        0.0000 
     24 H24        -0.7506   -5.3501   -5.2656 H         1 ****        0.0000 
     25 H25        -0.5485   -6.3671   -3.0235 H         1 ****        0.0000 
     26 H26         0.6086   -5.1650   -1.2253 H         1 ****        0.0000 
     27 H27         1.3773   -1.8958   -3.9345 H         1 ****        0.0000 
     28 H28         0.2110   -3.1204   -5.7188 H         1 ****        0.0000 
     29 H29        -0.5694   -2.9908   -0.6497 H         1 ****        0.0000 
     30 H30         2.1177   -3.1101    0.6664 H         1 ****        0.0000 
     31 S31        -1.8550   -1.0688   -0.5934 S.o2      1 ****        0.0000 
     32 O32        -1.5119    0.3158   -0.2521 O.2       1 ****        0.0000 
     33 C33        -2.2076   -1.1969   -2.4764 C.3       1 ****        0.0000 
     34 O34        -2.9193   -1.7659    0.1355 O.2       1 ****        0.0000 
     35 S35         3.9987   -3.9832   -0.3008 S.o2      1 ****        0.0000 
     36 O36         4.3251   -4.3370    1.0840 O.2       1 ****        0.0000 
     37 C37         4.0424   -5.5612   -1.3935 C.3       1 ****        0.0000 
     38 O38         4.7361   -2.9009   -0.9646 O.2       1 ****        0.0000 
     39 F39        -3.3405   -0.5454   -2.7451 F         1 ****        0.0000 
     40 F40        -1.1920   -0.6466   -3.1458 F         1 ****        0.0000 
     41 F41        -2.3297   -2.4865   -2.7982 F         1 ****        0.0000 
     42 F42         3.1763   -6.4493   -0.8990 F         1 ****        0.0000 
     43 F43         3.7062   -5.2308   -2.6421 F         1 ****        0.0000 
     44 F44         5.2795   -6.0614   -1.3701 F         1 ****        0.0000 
@<TRIPOS>BOND
     1    1    2 ar   
     2    1    6 ar   
     3    1    7 1    
     4    2    3 ar   
     5    2    8 1    
     6    3    4 ar   
     7    3    9 1    
     8    4    5 ar   
     9    4   10 1    
    10    5    6 ar   
    11    5   11 1    
    12    6   12 1    
    13   12   13 1    
    14   12   14 1    
    15   12   15 1    
    16   13   29 1    
    17   13   31 1    
    18   15   16 1    
    19   15   17 1    
    20   15   21 1    
    21   17   30 1    
    22   17   35 1    
    23   18   19 ar   
    24   18   23 ar   
    25   18   24 1    
    26   19   20 ar   
    27   19   25 1    
    28   20   21 ar   
    29   20   26 1    
    30   21   22 ar   
    31   22   23 ar   
    32   22   27 1    
    33   23   28 1    
    34   31   32 2    
    35   31   33 1    
    36   31   34 2    
    37   33   39 1    
    38   33   40 1    
    39   33   41 1    
    40   35   36 2    
    41   35   37 1    
    42   35   38 2    
    43   37   42 1    
    44   37   43 1    
    45   37   44 1    
@<TRIPOS>SUBSTRUCTURE
     1 ****        1 GROUP             0       ****    0 ROOT    
