@<TRIPOS>MOLECULE
Structure2
42   44    1
SMALL
USER_CHARGES


@<TRIPOS>ATOM
      1 C1          0.6905    0.2249    2.0195 C.3       1 ****        0.0000 
      2 C2         -0.6032    0.7373    1.3479 C.3       1 ****        0.0000 
      3 C3         -0.2723    0.9860   -0.1199 C.3       1 ****        0.0000 
      4 N4          1.4956    1.2838    2.6547 N.pl3     1 ****        0.0000 
      5 H5          0.4425   -0.5893    2.7022 H         1 ****        0.0000 
      6 H6         -1.3117   -0.0919    1.4068 H         1 ****        0.0000 
      7 O7         -1.2402    1.8460    1.9503 O.3       1 ****        0.0000 
      8 H8          0.0194    2.0250   -0.2798 H         1 ****        0.0000 
      9 H9         -1.1277    0.7724   -0.7603 H         1 ****        0.0000 
     10 C10         1.4570   -0.3559    0.8485 C.ar      1 ****        0.0000 
     11 C11         0.9081    0.0771   -0.3643 C.ar      1 ****        0.0000 
     12 C12         1.5209   -0.2626   -1.5701 C.ar      1 ****        0.0000 
     13 C13         2.6507   -1.0834   -1.5668 C.ar      1 ****        0.0000 
     14 C14         3.1816   -1.5411   -0.3589 C.ar      1 ****        0.0000 
     15 C15         2.5917   -1.1717    0.8516 C.ar      1 ****        0.0000 
     16 H16         1.1260    0.0997   -2.5084 H         1 ****        0.0000 
     17 H17         3.1211   -1.3587   -2.5012 H         1 ****        0.0000 
     18 H18         4.0614   -2.1706   -0.3619 H         1 ****        0.0000 
     19 H19         3.0270   -1.5069    1.7828 H         1 ****        0.0000 
     20 H20        -1.5351    1.5841    2.8288 H         1 ****        0.0000 
     21 H21         2.1322    1.7924    2.0592 H         1 ****        0.0000 
     22 C22         1.3960    1.6638    3.9630 C.2       1 ****        0.0000 
     23 S23         0.5083    0.8873    5.1337 S.2       1 ****        0.0000 
     24 N24         2.1380    2.7352    4.3529 N.pl3     1 ****        0.0000 
     25 H25         2.1867    2.8597    5.3535 H         1 ****        0.0000 
     26 C26         3.8862    5.8961    2.2026 C.ar      1 ****        0.0000 
     27 C27         2.7767    5.2437    1.6503 C.ar      1 ****        0.0000 
     28 C28         2.1813    4.1941    2.3589 C.ar      1 ****        0.0000 
     29 C29         2.6967    3.7831    3.5975 C.ar      1 ****        0.0000 
     30 C30         3.7899    4.4595    4.1426 C.ar      1 ****        0.0000 
     31 C31         4.3964    5.5154    3.4504 C.ar      1 ****        0.0000 
     32 H32         4.3517    6.7108    1.6622 H         1 ****        0.0000 
     33 C33         2.2142    5.6662    0.2926 C.3       1 ****        0.0000 
     34 H34         1.2970    3.7217    1.9503 H         1 ****        0.0000 
     35 H35         4.1835    4.1554    5.1036 H         1 ****        0.0000 
     36 C36         5.6000    6.2439    4.0499 C.3       1 ****        0.0000 
     37 F37         1.7795    4.6051   -0.3894 F         1 ****        0.0000 
     38 F38         1.1927    6.4981    0.4879 F         1 ****        0.0000 
     39 F39         3.1339    6.2891   -0.4462 F         1 ****        0.0000 
     40 F40         6.7134    5.6286    3.6554 F         1 ****        0.0000 
     41 F41         5.6483    7.5138    3.6449 F         1 ****        0.0000 
     42 F42         5.5562    6.2312    5.3831 F         1 ****        0.0000 
@<TRIPOS>BOND
     1    1    2 1    
     2    1    4 1    
     3    1    5 1    
     4    1   10 1    
     5    2    3 1    
     6    2    6 1    
     7    2    7 1    
     8    3    8 1    
     9    3    9 1    
    10    3   11 1    
    11    4   21 1    
    12    4   22 1    
    13    7   20 1    
    14   10   11 ar   
    15   10   15 ar   
    16   11   12 ar   
    17   12   13 ar   
    18   12   16 1    
    19   13   14 ar   
    20   13   17 1    
    21   14   15 ar   
    22   14   18 1    
    23   15   19 1    
    24   22   23 2    
    25   22   24 1    
    26   24   25 1    
    27   24   29 1    
    28   26   27 ar   
    29   26   31 ar   
    30   26   32 1    
    31   27   28 ar   
    32   27   33 1    
    33   28   29 ar   
    34   28   34 1    
    35   29   30 ar   
    36   30   31 ar   
    37   30   35 1    
    38   31   36 1    
    39   33   37 1    
    40   33   38 1    
    41   33   39 1    
    42   36   40 1    
    43   36   41 1    
    44   36   42 1    
@<TRIPOS>SUBSTRUCTURE
     1 ****        1 GROUP             0       ****    0 ROOT    
