@<TRIPOS>MOLECULE
Structure283
41   42    1
SMALL
USER_CHARGES


@<TRIPOS>ATOM
      1 C1          0.4043   -0.3299    0.1106 C.3       1 ****        0.2032 
      2 O2          1.5178   -0.3571    0.9759 O.3       1 ****       -0.3432 
      3 N3          2.3535    0.3905   -0.9242 N.am      1 ****       -0.0914 
      4 C4          0.9039    0.6387   -0.9784 C.3       1 ****       -0.0632 
      5 C5          0.1852   -1.7668   -0.4157 C.3       1 ****       -0.2215 
      6 C6         -0.8092    0.1163    0.9470 C.3       1 ****       -0.2215 
      7 H7          0.4978    0.2878   -1.9299 H         1 ****        0.0955 
      8 C8          0.5254    2.1600   -0.8479 C.3       1 ****       -0.0885 
      9 C9          2.6842   -0.0519    0.3102 C.2       1 ****        0.5666 
     10 O10         3.7796   -0.2251    0.8412 O.2       1 ****       -0.4636 
     11 C11         3.1406    0.4636   -2.0308 C.2       1 ****        0.4095 
     12 O12         2.6529    0.5329   -3.1621 O.2       1 ****       -0.4693 
     13 C13         4.6797    0.5280   -1.9317 C.3       1 ****       -0.0267 
     14 H14         5.0655   -0.2145   -1.2355 H         1 ****        0.0609 
     15 H15         5.1038    0.2468   -2.8966 H         1 ****        0.0609 
     16 C16         5.9786    4.5089   -0.9153 C.ar      1 ****       -0.1207 
     17 C17         6.1006    3.4829    0.0196 C.ar      1 ****       -0.1266 
     18 C18         5.6893    2.1946   -0.3119 C.ar      1 ****       -0.1090 
     19 C19         5.1566    1.9347   -1.5778 C.ar      1 ****       -0.0778 
     20 C20         5.0367    2.9703   -2.5108 C.ar      1 ****       -0.1090 
     21 C21         5.4483    4.2584   -2.1793 C.ar      1 ****       -0.1266 
     22 H22         6.2980    5.5084   -0.6572 H         1 ****        0.1311 
     23 H23         6.5108    3.6839    0.9989 H         1 ****        0.1324 
     24 H24         5.7802    1.4030    0.4193 H         1 ****        0.1290 
     25 H25         4.6175    2.7761   -3.4887 H         1 ****        0.1290 
     26 H26         5.3549    5.0591   -2.8988 H         1 ****        0.1324 
     27 C27         1.2629    2.9296    0.2722 C.3       1 ****       -0.1703 
     28 C28         0.7003    2.9092   -2.1829 C.3       1 ****       -0.1703 
     29 H29        -0.5426    2.2140   -0.6325 H         1 ****        0.0676 
     30 H30         2.3307    3.0194    0.0645 H         1 ****        0.0680 
     31 H31         0.8711    3.9417    0.3790 H         1 ****        0.0680 
     32 H32         1.1616    2.4439    1.2423 H         1 ****        0.0680 
     33 H33         0.2898    3.9181   -2.1287 H         1 ****        0.0680 
     34 H34         1.7505    3.0043   -2.4614 H         1 ****        0.0680 
     35 H35         0.1910    2.3967   -3.0001 H         1 ****        0.0680 
     36 H36        -0.6842   -1.8170   -1.0713 H         1 ****        0.0788 
     37 H37         1.0419   -2.1350   -0.9810 H         1 ****        0.0788 
     38 H38         0.0220   -2.4661    0.4051 H         1 ****        0.0788 
     39 H39        -1.6956    0.2375    0.3248 H         1 ****        0.0788 
     40 H40        -1.0434   -0.6184    1.7180 H         1 ****        0.0788 
     41 H41        -0.6323    1.0570    1.4658 H         1 ****        0.0788 
@<TRIPOS>BOND
     1    1    2 1    
     2    1    4 1    
     3    1    5 1    
     4    1    6 1    
     5    2    9 1    
     6    3    4 1    
     7    3    9 am   BACKBONE|DICT|INTERRES
     8    3   11 am   BACKBONE|DICT|INTERRES
     9    4    7 1    
    10    4    8 1    
    11    5   36 1    
    12    5   37 1    
    13    5   38 1    
    14    6   39 1    
    15    6   40 1    
    16    6   41 1    
    17    8   27 1    
    18    8   28 1    
    19    8   29 1    
    20    9   10 2    
    21   11   12 2    
    22   11   13 1    
    23   13   14 1    
    24   13   15 1    
    25   13   19 1    
    26   16   17 ar   
    27   16   21 ar   
    28   16   22 1    
    29   17   18 ar   
    30   17   23 1    
    31   18   19 ar   
    32   18   24 1    
    33   19   20 ar   
    34   20   21 ar   
    35   20   25 1    
    36   21   26 1    
    37   27   30 1    
    38   27   31 1    
    39   27   32 1    
    40   28   33 1    
    41   28   34 1    
    42   28   35 1    
@<TRIPOS>SUBSTRUCTURE
     1 ****        1 GROUP             0       ****    0 ROOT    
