@<TRIPOS>MOLECULE
Structure1
48   49    1
SMALL
USER_CHARGES


@<TRIPOS>ATOM
      1 C1         -0.7596   -6.6410   -3.6602 C.ar      1 ****        0.0000 
      2 C2          0.6050   -6.5009   -3.9432 C.ar      1 ****        0.0000 
      3 C3          1.0935   -5.2524   -4.3479 C.ar      1 ****        0.0000 
      4 C4          0.2387   -4.1487   -4.4619 C.ar      1 ****        0.0000 
      5 C5         -1.1214   -4.3079   -4.1745 C.ar      1 ****        0.0000 
      6 C6         -1.6320   -5.5580   -3.7888 C.ar      1 ****        0.0000 
      7 H7         -1.1445   -7.6044   -3.3526 H         1 ****        0.0000 
      8 C8          1.5527   -7.6938   -3.8113 C.3       1 ****        0.0000 
      9 H9          2.1472   -5.1415   -4.5708 H         1 ****        0.0000 
     10 C10         0.7689   -2.7778   -4.8852 C.3       1 ****        0.0000 
     11 H11        -1.7634   -3.4383   -4.2316 H         1 ****        0.0000 
     12 N12        -2.9877   -5.7841   -3.4784 N.pl3     1 ****        0.0000 
     13 F13         2.0999   -2.7164   -4.8160 F         1 ****        0.0000 
     14 F14         0.2677   -1.8209   -4.1032 F         1 ****        0.0000 
     15 F15         0.4040   -2.5398   -6.1444 F         1 ****        0.0000 
     16 F16         1.6457   -8.3004   -4.9934 F         1 ****        0.0000 
     17 F17         2.7708   -7.3003   -3.4366 F         1 ****        0.0000 
     18 F18         1.1038   -8.5746   -2.9155 F         1 ****        0.0000 
     19 H19        -3.1488   -6.4941   -2.7790 H         1 ****        0.0000 
     20 C20        -4.1104   -5.1040   -3.8389 C.2       1 ****        0.0000 
     21 S21        -5.4761   -5.3750   -2.9305 S.2       1 ****        0.0000 
     22 N22        -4.0177   -4.3031   -4.9420 N.pl3     1 ****        0.0000 
     23 H23        -3.1166   -4.2248   -5.3886 H         1 ****        0.0000 
     24 C24        -7.2237   -3.0224   -6.7578 C.3       1 ****        0.0000 
     25 C25        -6.1646   -4.0348   -6.2813 C.3       1 ****        0.0000 
     26 C26        -5.0406   -3.3728   -5.4423 C.3       1 ****        0.0000 
     27 C27        -4.4100   -2.1508   -6.1762 C.3       1 ****        0.0000 
     28 C28        -5.5045   -1.1493   -6.6242 C.3       1 ****        0.0000 
     29 C29        -6.5957   -1.8199   -7.4811 C.3       1 ****        0.0000 
     30 H30        -7.7949   -2.6703   -5.8964 H         1 ****        0.0000 
     31 H31        -7.9440   -3.5180   -7.4110 H         1 ****        0.0000 
     32 H32        -5.7239   -4.5258   -7.1505 H         1 ****        0.0000 
     33 H33        -6.6575   -4.8202   -5.7065 H         1 ****        0.0000 
     34 H34        -5.5162   -2.9502   -4.5559 H         1 ****        0.0000 
     35 N35        -3.2563   -1.5672   -5.4649 N.3       1 ****        0.0000 
     36 H36        -4.0041   -2.5739   -7.0988 H         1 ****        0.0000 
     37 H37        -5.9619   -0.6864   -5.7496 H         1 ****        0.0000 
     38 H38        -5.0598   -0.3394   -7.2011 H         1 ****        0.0000 
     39 H39        -6.1655   -2.1492   -8.4288 H         1 ****        0.0000 
     40 H40        -7.3692   -1.0938   -7.7365 H         1 ****        0.0000 
     41 C41        -3.5917   -0.9044   -4.2012 C.3       1 ****        0.0000 
     42 C42        -2.4352   -0.6930   -6.3052 C.3       1 ****        0.0000 
     43 H43        -4.2118   -0.0196   -4.3540 H         1 ****        0.0000 
     44 H44        -4.1222   -1.5765   -3.5252 H         1 ****        0.0000 
     45 H45        -2.6864   -0.5879   -3.6798 H         1 ****        0.0000 
     46 H46        -2.9562    0.2253   -6.5803 H         1 ****        0.0000 
     47 H47        -1.5183   -0.4086   -5.7856 H         1 ****        0.0000 
     48 H48        -2.1342   -1.2004   -7.2234 H         1 ****        0.0000 
@<TRIPOS>BOND
     1    1    2 ar   
     2    1    6 ar   
     3    1    7 1    
     4    2    3 ar   
     5    2    8 1    
     6    3    4 ar   
     7    3    9 1    
     8    4    5 ar   
     9    4   10 1    
    10    5    6 ar   
    11    5   11 1    
    12    6   12 1    
    13    8   16 1    
    14    8   17 1    
    15    8   18 1    
    16   10   13 1    
    17   10   14 1    
    18   10   15 1    
    19   12   19 1    
    20   12   20 1    
    21   20   21 2    
    22   20   22 1    
    23   22   23 1    
    24   22   26 1    
    25   24   25 1    
    26   24   29 1    
    27   24   30 1    
    28   24   31 1    
    29   25   26 1    
    30   25   32 1    
    31   25   33 1    
    32   26   27 1    
    33   26   34 1    
    34   27   28 1    
    35   27   35 1    
    36   27   36 1    
    37   28   29 1    
    38   28   37 1    
    39   28   38 1    
    40   29   39 1    
    41   29   40 1    
    42   35   41 1    
    43   35   42 1    
    44   41   43 1    
    45   41   44 1    
    46   41   45 1    
    47   42   46 1    
    48   42   47 1    
    49   42   48 1    
@<TRIPOS>SUBSTRUCTURE
     1 ****        1 GROUP             0       ****    0 ROOT    
