@<TRIPOS>MOLECULE
Structure2
58   64    1
SMALL
USER_CHARGES


@<TRIPOS>ATOM
      1 C1         -1.6695   -2.7014    3.8441 C.ar      1 ****       -0.0304 
      2 C2         -2.3009   -3.0628    5.0317 C.ar      1 ****       -0.0824 
      3 C3          0.5122   -3.0584    4.8911 C.ar      1 ****       -0.0764 
      4 C4         -0.2702   -2.7444    3.7592 C.ar      1 ****        0.1632 
      5 H5         -3.3798   -3.0440    5.0877 H         1 ****        0.1472 
      6 O6          0.3508   -2.4214    2.5765 O.3       1 ****       -0.3122 
      7 C7          4.8267   -2.7978    4.7364 C.ar      1 ****       -0.0824 
      8 C8          4.1462   -3.6322    3.8516 C.ar      1 ****       -0.0304 
      9 C9          2.7459   -3.6810    3.8932 C.ar      1 ****        0.1632 
     10 C10         2.0121   -2.9335    4.8331 C.ar      1 ****       -0.0764 
     11 H11         5.9060   -2.7600    4.7127 H         1 ****        0.1472 
     12 O12         2.0733   -4.4716    2.9981 O.3       1 ****       -0.3122 
     13 C13        -1.5651   -3.4937    6.1539 C.ar      1 ****       -0.0467 
     14 C14        -0.1384   -3.5057    6.0909 C.ar      1 ****       -0.0017 
     15 C15         0.5726   -3.9726    7.2355 C.ar      1 ****       -0.1121 
     16 C16        -0.0996   -4.3808    8.3841 C.ar      1 ****       -0.1195 
     17 C17        -1.4868   -4.3465    8.4372 C.ar      1 ****       -0.1234 
     18 C18        -2.2217   -3.9110    7.3394 C.ar      1 ****       -0.1139 
     19 H19         1.6517   -4.0158    7.2133 H         1 ****        0.1436 
     20 H20         0.4617   -4.7295    9.2393 H         1 ****        0.1358 
     21 H21        -1.9964   -4.6677    9.3345 H         1 ****        0.1343 
     22 H22        -3.3014   -3.8964    7.3836 H         1 ****        0.1365 
     23 C23         2.7101   -2.0230    5.6978 C.ar      1 ****       -0.0017 
     24 C24         4.1374   -1.9764    5.6522 C.ar      1 ****       -0.0467 
     25 C25         4.8422   -1.1023    6.5184 C.ar      1 ****       -0.1139 
     26 C26         4.1535   -0.2742    7.3987 C.ar      1 ****       -0.1234 
     27 C27         2.7656   -0.2895    7.4356 C.ar      1 ****       -0.1195 
     28 C28         2.0470   -1.1414    6.6017 C.ar      1 ****       -0.1121 
     29 H29         5.9219   -1.0751    6.4852 H         1 ****        0.1365 
     30 H30         4.6991    0.3926    8.0511 H         1 ****        0.1343 
     31 H31         2.2396    0.3665    8.1145 H         1 ****        0.1358 
     32 H32         0.9679   -1.1281    6.6415 H         1 ****        0.1436 
     33 P33         1.1990   -3.6407    1.9101 P.3       1 ****        0.8887 
     34 O34         2.3392   -2.8551    1.0930 O.3       1 ****       -0.5314 
     35 H35         2.5381   -3.3421    0.2765 H         1 ****        0.4356 
     36 O36         0.4138   -4.5128    1.0012 O.2       1 ****       -0.5403 
     37 C37        -4.1128   -1.4393    0.5652 C.ar      1 ****       -0.1220 
     38 C38        -3.3225   -2.5789    0.4367 C.ar      1 ****       -0.1319 
     39 C39        -2.5268   -2.9895    1.5029 C.ar      1 ****       -0.1019 
     40 C40        -2.5114   -2.2646    2.6983 C.ar      1 ****       -0.0486 
     41 C41        -3.3151   -1.1248    2.8153 C.ar      1 ****       -0.1019 
     42 C42        -4.1135   -0.7100    1.7518 C.ar      1 ****       -0.1319 
     43 H43        -4.7283   -1.1189   -0.2630 H         1 ****        0.1296 
     44 H44        -3.3223   -3.1449   -0.4837 H         1 ****        0.1329 
     45 H45        -1.9258   -3.8807    1.4013 H         1 ****        0.1372 
     46 H46        -3.3101   -0.5527    3.7317 H         1 ****        0.1372 
     47 H47        -4.7259    0.1749    1.8455 H         1 ****        0.1329 
     48 C48         6.3775   -5.9391    1.0102 C.ar      1 ****       -0.1220 
     49 C49         6.6325   -4.5772    1.1488 C.ar      1 ****       -0.1319 
     50 C50         5.9058   -3.8309    2.0734 C.ar      1 ****       -0.1019 
     51 C51         4.9223   -4.4376    2.8646 C.ar      1 ****       -0.0486 
     52 C52         4.6785   -5.8077    2.7110 C.ar      1 ****       -0.1019 
     53 C53         5.4017   -6.5579    1.7873 C.ar      1 ****       -0.1319 
     54 H54         6.9384   -6.5203    0.2921 H         1 ****        0.1296 
     55 H55         7.3871   -4.1007    0.5397 H         1 ****        0.1329 
     56 H56         6.0981   -2.7716    2.1667 H         1 ****        0.1372 
     57 H57         3.9184   -6.2910    3.3090 H         1 ****        0.1372 
     58 H58         5.2027   -7.6140    1.6743 H         1 ****        0.1329 
@<TRIPOS>BOND
     1    1    2 ar   
     2    1    4 ar   
     3    1   40 1    
     4    2    5 1    
     5    2   13 ar   
     6    3    4 ar   
     7    3   10 1    
     8    3   14 ar   
     9    4    6 1    
    10    6   33 1    
    11    7    8 ar   
    12    7   11 1    
    13    7   24 ar   
    14    8    9 ar   
    15    8   51 1    
    16    9   10 ar   
    17    9   12 1    
    18   10   23 ar   
    19   12   33 1    
    20   13   14 ar   
    21   13   18 ar   
    22   14   15 ar   
    23   15   16 ar   
    24   15   19 1    
    25   16   17 ar   
    26   16   20 1    
    27   17   18 ar   
    28   17   21 1    
    29   18   22 1    
    30   23   24 ar   
    31   23   28 ar   
    32   24   25 ar   
    33   25   26 ar   
    34   25   29 1    
    35   26   27 ar   
    36   26   30 1    
    37   27   28 ar   
    38   27   31 1    
    39   28   32 1    
    40   33   34 1    
    41   33   36 2    
    42   34   35 1    
    43   37   38 ar   
    44   37   42 ar   
    45   37   43 1    
    46   38   39 ar   
    47   38   44 1    
    48   39   40 ar   
    49   39   45 1    
    50   40   41 ar   
    51   41   42 ar   
    52   41   46 1    
    53   42   47 1    
    54   48   49 ar   
    55   48   53 ar   
    56   48   54 1    
    57   49   50 ar   
    58   49   55 1    
    59   50   51 ar   
    60   50   56 1    
    61   51   52 ar   
    62   52   53 ar   
    63   52   57 1    
    64   53   58 1    
@<TRIPOS>SUBSTRUCTURE
     1 ****        1 GROUP             0       ****    0 ROOT    
