@<TRIPOS>MOLECULE
Structure1518
30   31    1
SMALL
USER_CHARGES


@<TRIPOS>ATOM
      1 C1         -1.1942   -1.0579   -1.6418 C.3       1 ****        0.0818 
      2 N2         -0.1467   -1.1810   -0.6354 N.3       1 ****       -0.8349 
      3 C3          1.0894   -1.4453   -1.3695 C.3       1 ****        0.0734 
      4 C4          0.6478   -2.3422   -2.5337 C.3       1 ****       -0.1385 
      5 C5         -0.8611   -2.1306   -2.6716 C.3       1 ****       -0.1352 
      6 H6         -2.1743   -1.2320   -1.1890 H         1 ****        0.0860 
      7 H7         -1.2234   -0.0636   -2.0948 H         1 ****        0.0860 
      8 C8          1.7890   -0.1306   -1.8028 C.3       1 ****        0.0826 
      9 H9          1.7410   -2.0083   -0.6977 H         1 ****        0.0539 
     10 H10         1.1674   -2.0903   -3.4600 H         1 ****        0.0793 
     11 H11         0.8909   -3.3876   -2.3330 H         1 ****        0.0793 
     12 H12        -1.4146   -3.0493   -2.4664 H         1 ****        0.0980 
     13 H13        -1.1422   -1.8140   -3.6777 H         1 ****        0.0980 
     14 H14         1.2148    0.3578   -2.5930 H         1 ****        0.1280 
     15 H15         2.8151   -0.2711   -2.1495 H         1 ****        0.1280 
     16 N16         1.8007    0.8611   -0.6113 N.4       1 ****       -0.4529 
     17 C17         2.0388    2.3383   -0.9888 C.3       1 ****        0.0333 
     18 C18         3.5598    2.5093   -0.9076 C.3       1 ****       -0.1608 
     19 C19         4.0813    1.4194    0.0443 C.3       1 ****       -0.1608 
     20 C20         2.8744    0.5678    0.4588 C.3       1 ****        0.0333 
     21 H21         1.5035    2.9203   -0.2322 H         1 ****        0.1295 
     22 H22         1.5821    2.5780   -1.9533 H         1 ****        0.1295 
     23 H23         4.0098    2.4148   -1.8990 H         1 ****        0.1208 
     24 H24         3.8175    3.5102   -0.5508 H         1 ****        0.1208 
     25 H25         4.5588    1.8558    0.9258 H         1 ****        0.1208 
     26 H26         4.8433    0.8026   -0.4387 H         1 ****        0.1208 
     27 H27         2.4319    0.8928    1.4053 H         1 ****        0.1295 
     28 H28         3.0538   -0.5072    0.5478 H         1 ****        0.1295 
     29 H29         0.8678    0.7052   -0.2229 H         1 ****        0.3074 
     30 H30        -0.3674   -1.9974   -0.0685 H         1 ****        0.4335 
@<TRIPOS>BOND
     1    1    2 1    
     2    1    5 1    
     3    1    6 1    
     4    1    7 1    
     5    2    3 1    
     6    2   30 1    
     7    3    4 1    
     8    3    8 1    
     9    3    9 1    
    10    4    5 1    
    11    4   10 1    
    12    4   11 1    
    13    5   12 1    
    14    5   13 1    
    15    8   14 1    
    16    8   15 1    
    17    8   16 1    
    18   16   17 1    
    19   16   20 1    
    20   16   29 1    
    21   17   18 1    
    22   17   21 1    
    23   17   22 1    
    24   18   19 1    
    25   18   23 1    
    26   18   24 1    
    27   19   20 1    
    28   19   25 1    
    29   19   26 1    
    30   20   27 1    
    31   20   28 1    
@<TRIPOS>SUBSTRUCTURE
     1 ****        1 GROUP             0       ****    0 ROOT    
