@<TRIPOS>MOLECULE
Structure1514
72   79    1
SMALL
USER_CHARGES


@<TRIPOS>ATOM
      1 C1          1.5802    1.2903   -0.2944 C.ar      1 ****        0.1209 
      2 C2          0.8611    2.0866    0.6193 C.ar      1 ****       -0.1251 
      3 C3         -0.4969    1.8605    0.8743 C.ar      1 ****       -0.1107 
      4 C4         -1.1122    0.8284    0.1817 C.ar      1 ****        0.0728 
      5 C5         -0.4283    0.0459   -0.7050 C.ar      1 ****        0.0840 
      6 C6          0.9285    0.2369   -0.9726 C.ar      1 ****        0.0183 
      7 P7          3.3887    1.6721   -0.6180 P.3       1 ****       -0.4344 
      8 H8          1.3643    2.8927    1.1298 H         1 ****        0.1441 
      9 H9         -1.0419    2.4691    1.5791 H         1 ****        0.1512 
     10 O10        -2.4004    0.4049    0.2641 O.3       1 ****       -0.2576 
     11 O11        -1.2741   -0.9005   -1.1991 O.3       1 ****       -0.2509 
     12 C12         3.0227   -2.3527   -3.7324 C.ar      1 ****       -0.1107 
     13 C13         3.2166   -2.4152   -2.3606 C.ar      1 ****        0.0728 
     14 C14         2.5482   -1.5924   -1.4990 C.ar      1 ****        0.0840 
     15 C15         1.6328   -0.6365   -1.9432 C.ar      1 ****        0.0183 
     16 C16         1.4247   -0.5376   -3.3364 C.ar      1 ****        0.1209 
     17 C17         2.1200   -1.3957   -4.2117 C.ar      1 ****       -0.1251 
     18 H18         3.5485   -3.0115   -4.4061 H         1 ****        0.1512 
     19 O19         4.0177   -3.2576   -1.6574 O.3       1 ****       -0.2576 
     20 O20         2.9094   -1.9052   -0.2235 O.3       1 ****       -0.2509 
     21 P21         0.2581    0.7486   -4.0479 P.3       1 ****       -0.4344 
     22 H22         1.9598   -1.3109   -5.2751 H         1 ****        0.1441 
     23 C23        -2.5558   -0.5142   -0.7835 C.3       1 ****       -0.0351 
     24 C24         4.0079   -2.7674   -0.3437 C.3       1 ****       -0.0351 
     25 H25        -3.0711   -0.0301   -1.6166 H         1 ****        0.1589 
     26 H26        -3.1354   -1.3799   -0.4600 H         1 ****        0.1589 
     27 H27         4.9262   -2.2043   -0.1604 H         1 ****        0.1589 
     28 H28         3.9402   -3.5838    0.3767 H         1 ****        0.1589 
     29 C29         3.3876    5.7865   -2.7896 C.ar      1 ****       -0.1226 
     30 C30         2.1890    5.0866   -2.6692 C.ar      1 ****       -0.1349 
     31 C31         2.1706    3.8584   -2.0125 C.ar      1 ****       -0.1061 
     32 C32         3.3457    3.3316   -1.4709 C.ar      1 ****        0.0923 
     33 C33         4.5440    4.0319   -1.6150 C.ar      1 ****       -0.1061 
     34 C34         4.5682    5.2628   -2.2667 C.ar      1 ****       -0.1349 
     35 H35         3.4028    6.7360   -3.3053 H         1 ****        0.1294 
     36 H36         1.2793    5.4809   -3.0978 H         1 ****        0.1318 
     37 H37         1.2452    3.3055   -1.9546 H         1 ****        0.1358 
     38 H38         5.4546    3.6090   -1.2170 H         1 ****        0.1358 
     39 H39         5.4982    5.8019   -2.3728 H         1 ****        0.1318 
     40 C40         4.7649    2.3537    3.7688 C.ar      1 ****       -0.1226 
     41 C41         4.5547    3.4660    2.9559 C.ar      1 ****       -0.1349 
     42 C42         4.1438    3.2877    1.6365 C.ar      1 ****       -0.1061 
     43 C43         3.9453    2.0005    1.1305 C.ar      1 ****        0.0923 
     44 C44         4.1553    0.8947    1.9533 C.ar      1 ****       -0.1061 
     45 C45         4.5653    1.0667    3.2733 C.ar      1 ****       -0.1349 
     46 H46         5.0823    2.4900    4.7930 H         1 ****        0.1294 
     47 H47         4.7066    4.4619    3.3459 H         1 ****        0.1318 
     48 H48         3.9704    4.1517    1.0148 H         1 ****        0.1358 
     49 H49         3.9888   -0.0969    1.5577 H         1 ****        0.1358 
     50 H50         4.7239    0.2062    3.9069 H         1 ****        0.1318 
     51 C51         3.0013    3.7585   -6.2973 C.ar      1 ****       -0.1226 
     52 C52         3.5794    2.8462   -5.4172 C.ar      1 ****       -0.1349 
     53 C53         2.7730    1.9315   -4.7441 C.ar      1 ****       -0.1061 
     54 C54         1.3918    1.9227   -4.9533 C.ar      1 ****        0.0923 
     55 C55         0.8215    2.8541   -5.8218 C.ar      1 ****       -0.1061 
     56 C56         1.6230    3.7685   -6.5015 C.ar      1 ****       -0.1349 
     57 H57         3.6264    4.4726   -6.8140 H         1 ****        0.1294 
     58 H58         4.6448    2.8565   -5.2396 H         1 ****        0.1318 
     59 H59         3.2239    1.2518   -4.0370 H         1 ****        0.1358 
     60 H60        -0.2494    2.8603   -5.9613 H         1 ****        0.1358 
     61 H61         1.1765    4.4854   -7.1748 H         1 ****        0.1318 
     62 C62        -1.8766   -1.9040   -7.2116 C.ar      1 ****       -0.1226 
     63 C63        -0.8953   -1.0129   -7.6418 C.ar      1 ****       -0.1349 
     64 C64        -0.2423   -0.2055   -6.7129 C.ar      1 ****       -0.1061 
     65 C65        -0.5708   -0.2873   -5.3573 C.ar      1 ****        0.0923 
     66 C66        -1.5516   -1.1846   -4.9371 C.ar      1 ****       -0.1061 
     67 C67        -2.2073   -1.9949   -5.8610 C.ar      1 ****       -0.1349 
     68 H68        -2.3833   -2.5322   -7.9304 H         1 ****        0.1294 
     69 H69        -0.6393   -0.9492   -8.6894 H         1 ****        0.1318 
     70 H70         0.5251    0.4738   -7.0489 H         1 ****        0.1358 
     71 H71        -1.7920   -1.2498   -3.8857 H         1 ****        0.1358 
     72 H72        -2.9647   -2.6901   -5.5292 H         1 ****        0.1318 
@<TRIPOS>BOND
     1    1    2 ar   
     2    1    6 ar   
     3    1    7 1    
     4    2    3 ar   
     5    2    8 1    
     6    3    4 ar   
     7    3    9 1    
     8    4    5 ar   
     9    4   10 1    
    10    5    6 ar   
    11    5   11 1    
    12    6   15 1    
    13    7   32 1    
    14    7   43 1    
    15   10   23 1    
    16   11   23 1    
    17   12   13 ar   
    18   12   17 ar   
    19   12   18 1    
    20   13   14 ar   
    21   13   19 1    
    22   14   15 ar   
    23   14   20 1    
    24   15   16 ar   
    25   16   17 ar   
    26   16   21 1    
    27   17   22 1    
    28   19   24 1    
    29   20   24 1    
    30   21   54 1    
    31   21   65 1    
    32   23   25 1    
    33   23   26 1    
    34   24   27 1    
    35   24   28 1    
    36   29   30 ar   
    37   29   34 ar   
    38   29   35 1    
    39   30   31 ar   
    40   30   36 1    
    41   31   32 ar   
    42   31   37 1    
    43   32   33 ar   
    44   33   34 ar   
    45   33   38 1    
    46   34   39 1    
    47   40   41 ar   
    48   40   45 ar   
    49   40   46 1    
    50   41   42 ar   
    51   41   47 1    
    52   42   43 ar   
    53   42   48 1    
    54   43   44 ar   
    55   44   45 ar   
    56   44   49 1    
    57   45   50 1    
    58   51   52 ar   
    59   51   56 ar   
    60   51   57 1    
    61   52   53 ar   
    62   52   58 1    
    63   53   54 ar   
    64   53   59 1    
    65   54   55 ar   
    66   55   56 ar   
    67   55   60 1    
    68   56   61 1    
    69   62   63 ar   
    70   62   67 ar   
    71   62   68 1    
    72   63   64 ar   
    73   63   69 1    
    74   64   65 ar   
    75   64   70 1    
    76   65   66 ar   
    77   66   67 ar   
    78   66   71 1    
    79   67   72 1    
@<TRIPOS>SUBSTRUCTURE
     1 ****        1 GROUP             0       ****    0 ROOT    
