@<TRIPOS>MOLECULE
Molecule Name
69   73    1
SMALL
USER_CHARGES


@<TRIPOS>ATOM
      1 C1          0.6092    1.5319   -0.5341 C.2       1 ****        0.4888 
      2 N2         -0.6025    0.9598   -0.4625 N.am      1 ****       -0.4015 
      3 C3         -1.9202    1.5603   -0.7289 C.3       1 ****        0.0295 
      4 C4         -2.3173    2.7640    0.2043 C.3       1 ****        0.1043 
      5 H5         -1.8795    1.9176   -1.7587 H         1 ****        0.1230 
      6 C6         -2.9738    0.4400   -0.7093 C.ar      1 ****       -0.1518 
      7 H7         -1.9719    2.5369    1.2145 H         1 ****        0.1094 
      8 C8         -3.8287    3.1663    0.2837 C.3       1 ****       -0.1396 
      9 N9         -1.5109    4.0414   -0.1812 N.4       1 ****       -0.4519 
     10 C10        -3.2307   -0.3580    0.4616 C.ar      1 ****        0.1187 
     11 C11        -3.7265    0.1911   -1.8626 C.ar      1 ****       -0.1512 
     12 C12        -4.0485    4.7013    0.1568 C.3       1 ****       -0.0840 
     13 H13        -4.2686    2.7754    1.2029 H         1 ****        0.1180 
     14 H14        -4.3947    2.6649   -0.5026 H         1 ****        0.1180 
     15 C15        -2.0503    4.7206   -1.4736 C.3       1 ****        0.0436 
     16 C16        -1.6243    5.0694    0.9815 C.3       1 ****        0.0414 
     17 C17        -2.5392   -0.2237    1.6970 C.ar      1 ****       -0.2495 
     18 C18        -4.2506   -1.3585    0.3716 C.ar      1 ****        0.0597 
     19 C19        -4.6939   -0.8074   -1.8491 C.ar      1 ****       -0.0439 
     20 H20        -3.5676    0.7562   -2.7705 H         1 ****        0.1276 
     21 C21        -3.5367    5.1144   -1.2499 C.3       1 ****       -0.1560 
     22 H22        -5.1015    4.9680    0.2910 H         1 ****        0.1392 
     23 C23        -3.1366    5.4145    1.2079 C.3       1 ****       -0.1040 
     24 H24        -1.9181    4.0297   -2.3078 H         1 ****        0.1239 
     25 H25        -1.4154    5.5890   -1.6698 H         1 ****        0.1239 
     26 H26        -1.1396    4.6268    1.8564 H         1 ****        0.1173 
     27 H27        -1.0332    5.9430    0.6932 H         1 ****        0.1173 
     28 C28        -2.8307   -1.0301    2.7900 C.ar      1 ****        0.1983 
     29 H29        -1.7504    0.4970    1.8127 H         1 ****        0.1351 
     30 C30        -4.5396   -2.1686    1.4940 C.ar      1 ****       -0.1131 
     31 N31        -4.9650   -1.5702   -0.7666 N.ar      1 ****       -0.1435 
     32 H32        -5.2815   -1.0211   -2.7319 H         1 ****        0.1724 
     33 H33        -4.1569    4.6578   -2.0245 H         1 ****        0.1131 
     34 H34        -3.6570    6.1907   -1.3935 H         1 ****        0.1131 
     35 H35        -3.2459    6.4934    1.0663 H         1 ****        0.1078 
     36 C36        -3.5821    5.1484    2.6625 C.3       1 ****       -0.1776 
     37 C37        -3.8341   -1.9978    2.6829 C.ar      1 ****       -0.1751 
     38 O38        -2.0772   -0.7996    3.9204 O.3       1 ****       -0.3732 
     39 H39        -5.3098   -2.9244    1.4153 H         1 ****        0.1677 
     40 H40        -3.0111    5.7544    3.3685 H         1 ****        0.0840 
     41 H41        -4.6337    5.3995    2.8112 H         1 ****        0.0840 
     42 H42        -3.4493    4.1067    2.9569 H         1 ****        0.0840 
     43 H43        -4.0756   -2.6359    3.5186 H         1 ****        0.1521 
     44 C44        -2.2267   -1.6619    5.0452 C.3       1 ****        0.1315 
     45 H45        -1.5193   -1.3680    5.8210 H         1 ****        0.0515 
     46 H46        -3.2283   -1.5955    5.4728 H         1 ****        0.0515 
     47 H47        -2.0148   -2.7012    4.7877 H         1 ****        0.0515 
     48 N48         1.6772    0.7203   -0.4535 N.am      1 ****       -0.3049 
     49 O49         0.7649    2.7349   -0.7059 O.2       1 ****       -0.5073 
     50 H50        -0.5904   -0.0480   -0.5153 H         1 ****        0.2461 
     51 H51         2.5496    1.1728   -0.6802 H         1 ****        0.2412 
     52 C52         1.7315   -0.6660   -0.2229 C.ar      1 ****        0.0211 
     53 C53         1.0030   -1.2913    0.7990 C.ar      1 ****       -0.0460 
     54 C54         2.5937   -1.4246   -1.0171 C.ar      1 ****       -0.0460 
     55 C55         1.1057   -2.6729    1.0024 C.ar      1 ****       -0.1027 
     56 H56         0.3665   -0.7097    1.4522 H         1 ****        0.1540 
     57 C57         2.7078   -2.8070   -0.8282 C.ar      1 ****       -0.1027 
     58 H58         3.1728   -0.9469   -1.7970 H         1 ****        0.1540 
     59 C59         1.9572   -3.4238    0.1810 C.ar      1 ****       -0.0188 
     60 H60         2.0409   -4.4937    0.3297 H         1 ****        0.1698 
     61 C61         3.6455   -3.6234   -1.7183 C.3       1 ****        0.4694 
     62 C62         0.3004   -3.3403    2.1175 C.3       1 ****        0.4694 
     63 F63         3.9612   -4.7934   -1.1617 F         1 ****       -0.1659 
     64 F64         3.0358   -3.8550   -2.8795 F         1 ****       -0.1659 
     65 F65         4.7723   -2.9497   -1.9513 F         1 ****       -0.1659 
     66 F66        -0.9709   -3.4355    1.7325 F         1 ****       -0.1659 
     67 F67         0.7494   -4.5649    2.3944 F         1 ****       -0.1659 
     68 F68         0.3610   -2.6117    3.2321 F         1 ****       -0.1659 
     69 H69        -0.5344    3.7464   -0.3234 H         1 ****        0.3136 
@<TRIPOS>BOND
     1    1    2 am   BACKBONE|DICT|INTERRES
     2    1   48 am   BACKBONE|DICT|INTERRES
     3    1   49 2    
     4    2    3 1    
     5    2   50 1    
     6    3    4 1    
     7    3    5 1    
     8    3    6 1    
     9    4    7 1    
    10    4    8 1    
    11    4    9 1    
    12    6   10 ar   
    13    6   11 ar   
    14    8   12 1    
    15    8   13 1    
    16    8   14 1    
    17    9   15 1    
    18    9   16 1    
    19    9   69 1    
    20   10   17 ar   
    21   10   18 ar   
    22   11   19 ar   
    23   11   20 1    
    24   12   21 1    
    25   12   22 1    
    26   12   23 1    
    27   15   21 1    
    28   15   24 1    
    29   15   25 1    
    30   16   23 1    
    31   16   26 1    
    32   16   27 1    
    33   17   28 ar   
    34   17   29 1    
    35   18   30 ar   
    36   18   31 ar   
    37   19   31 ar   
    38   19   32 1    
    39   21   33 1    
    40   21   34 1    
    41   23   35 1    
    42   23   36 1    
    43   28   37 ar   
    44   28   38 1    
    45   30   37 ar   
    46   30   39 1    
    47   36   40 1    
    48   36   41 1    
    49   36   42 1    
    50   37   43 1    
    51   38   44 1    
    52   44   45 1    
    53   44   46 1    
    54   44   47 1    
    55   48   51 1    
    56   48   52 1    
    57   52   53 ar   
    58   52   54 ar   
    59   53   55 ar   
    60   53   56 1    
    61   54   57 ar   
    62   54   58 1    
    63   55   59 ar   
    64   55   62 1    
    65   57   59 ar   
    66   57   61 1    
    67   59   60 1    
    68   61   63 1    
    69   61   64 1    
    70   61   65 1    
    71   62   66 1    
    72   62   67 1    
    73   62   68 1    
@<TRIPOS>SUBSTRUCTURE
     1 ****        1 GROUP             0       ****    0 ROOT    
